! Program Version,EnergyPlus, Version 8.3.0-6d97d074ea, YMD=2015.09.15 11:18,IDD_Version 8.3.0
! Output:Meter Objects (applicable to this run)
Output:Meter,Electricity:Facility,hourly; !- [J]
Output:Meter:Cumulative,Electricity:Facility,hourly; !- [J]
Output:Meter,Electricity:Building,hourly; !- [J]
Output:Meter:Cumulative,Electricity:Building,hourly; !- [J]
Output:Meter,Electricity:Zone:BANQUET_FLR_6 ZN,hourly; !- [J]
Output:Meter:Cumulative,Electricity:Zone:BANQUET_FLR_6 ZN,hourly; !- [J]
Output:Meter,InteriorLights:Electricity,hourly; !- [J]
Output:Meter:Cumulative,InteriorLights:Electricity,hourly; !- [J]
Output:Meter,InteriorLights:Electricity:Zone:BANQUET_FLR_6 ZN,hourly; !- [J]
Output:Meter:Cumulative,InteriorLights:Electricity:Zone:BANQUET_FLR_6 ZN,hourly; !- [J]
Output:Meter,General:InteriorLights:Electricity,hourly; !- [J]
Output:Meter:Cumulative,General:InteriorLights:Electricity,hourly; !- [J]
Output:Meter,Electricity:Zone:DINING_FLR_6 ZN,hourly; !- [J]
Output:Meter:Cumulative,Electricity:Zone:DINING_FLR_6 ZN,hourly; !- [J]
Output:Meter,InteriorLights:Electricity:Zone:DINING_FLR_6 ZN,hourly; !- [J]
Output:Meter:Cumulative,InteriorLights:Electricity:Zone:DINING_FLR_6 ZN,hourly; !- [J]
Output:Meter,Electricity:Zone:BASEMENT ZN,hourly; !- [J]
Output:Meter:Cumulative,Electricity:Zone:BASEMENT ZN,hourly; !- [J]
Output:Meter,InteriorLights:Electricity:Zone:BASEMENT ZN,hourly; !- [J]
Output:Meter:Cumulative,InteriorLights:Electricity:Zone:BASEMENT ZN,hourly; !- [J]
Output:Meter,Electricity:Zone:CAFE_FLR_1 ZN,hourly; !- [J]
Output:Meter:Cumulative,Electricity:Zone:CAFE_FLR_1 ZN,hourly; !- [J]
Output:Meter,InteriorLights:Electricity:Zone:CAFE_FLR_1 ZN,hourly; !- [J]
Output:Meter:Cumulative,InteriorLights:Electricity:Zone:CAFE_FLR_1 ZN,hourly; !- [J]
Output:Meter,Electricity:Zone:CORRIDOR_FLR_6 ZN,hourly; !- [J]
Output:Meter:Cumulative,Electricity:Zone:CORRIDOR_FLR_6 ZN,hourly; !- [J]
Output:Meter,InteriorLights:Electricity:Zone:CORRIDOR_FLR_6 ZN,hourly; !- [J]
Output:Meter:Cumulative,InteriorLights:Electricity:Zone:CORRIDOR_FLR_6 ZN,hourly; !- [J]
Output:Meter,Electricity:Zone:CORRIDOR_FLR_3 ZN,hourly; !- [J]
Output:Meter:Cumulative,Electricity:Zone:CORRIDOR_FLR_3 ZN,hourly; !- [J]
Output:Meter,InteriorLights:Electricity:Zone:CORRIDOR_FLR_3 ZN,hourly; !- [J]
Output:Meter:Cumulative,InteriorLights:Electricity:Zone:CORRIDOR_FLR_3 ZN,hourly; !- [J]
Output:Meter,Electricity:Zone:ROOM_1_FLR_3 ZN,hourly; !- [J]
Output:Meter:Cumulative,Electricity:Zone:ROOM_1_FLR_3 ZN,hourly; !- [J]
Output:Meter,InteriorLights:Electricity:Zone:ROOM_1_FLR_3 ZN,hourly; !- [J]
Output:Meter:Cumulative,InteriorLights:Electricity:Zone:ROOM_1_FLR_3 ZN,hourly; !- [J]
Output:Meter,Electricity:Zone:ROOM_2_FLR_3 ZN,hourly; !- [J]
Output:Meter:Cumulative,Electricity:Zone:ROOM_2_FLR_3 ZN,hourly; !- [J]
Output:Meter,InteriorLights:Electricity:Zone:ROOM_2_FLR_3 ZN,hourly; !- [J]
Output:Meter:Cumulative,InteriorLights:Electricity:Zone:ROOM_2_FLR_3 ZN,hourly; !- [J]
Output:Meter,Electricity:Zone:ROOM_5_FLR_3 ZN,hourly; !- [J]
Output:Meter:Cumulative,Electricity:Zone:ROOM_5_FLR_3 ZN,hourly; !- [J]
Output:Meter,InteriorLights:Electricity:Zone:ROOM_5_FLR_3 ZN,hourly; !- [J]
Output:Meter:Cumulative,InteriorLights:Electricity:Zone:ROOM_5_FLR_3 ZN,hourly; !- [J]
Output:Meter,Electricity:Zone:ROOM_6_FLR_3 ZN,hourly; !- [J]
Output:Meter:Cumulative,Electricity:Zone:ROOM_6_FLR_3 ZN,hourly; !- [J]
Output:Meter,InteriorLights:Electricity:Zone:ROOM_6_FLR_3 ZN,hourly; !- [J]
Output:Meter:Cumulative,InteriorLights:Electricity:Zone:ROOM_6_FLR_3 ZN,hourly; !- [J]
Output:Meter,Electricity:Zone:ROOM_3_MULT19_FLR_3 ZN,hourly; !- [J]
Output:Meter:Cumulative,Electricity:Zone:ROOM_3_MULT19_FLR_3 ZN,hourly; !- [J]
Output:Meter,InteriorLights:Electricity:Zone:ROOM_3_MULT19_FLR_3 ZN,hourly; !- [J]
Output:Meter:Cumulative,InteriorLights:Electricity:Zone:ROOM_3_MULT19_FLR_3 ZN,hourly; !- [J]
Output:Meter,Electricity:Zone:ROOM_4_MULT19_FLR_3 ZN,hourly; !- [J]
Output:Meter:Cumulative,Electricity:Zone:ROOM_4_MULT19_FLR_3 ZN,hourly; !- [J]
Output:Meter,InteriorLights:Electricity:Zone:ROOM_4_MULT19_FLR_3 ZN,hourly; !- [J]
Output:Meter:Cumulative,InteriorLights:Electricity:Zone:ROOM_4_MULT19_FLR_3 ZN,hourly; !- [J]
Output:Meter,Electricity:Zone:ROOM_1_FLR_6 ZN,hourly; !- [J]
Output:Meter:Cumulative,Electricity:Zone:ROOM_1_FLR_6 ZN,hourly; !- [J]
Output:Meter,InteriorLights:Electricity:Zone:ROOM_1_FLR_6 ZN,hourly; !- [J]
Output:Meter:Cumulative,InteriorLights:Electricity:Zone:ROOM_1_FLR_6 ZN,hourly; !- [J]
Output:Meter,Electricity:Zone:ROOM_2_FLR_6 ZN,hourly; !- [J]
Output:Meter:Cumulative,Electricity:Zone:ROOM_2_FLR_6 ZN,hourly; !- [J]
Output:Meter,InteriorLights:Electricity:Zone:ROOM_2_FLR_6 ZN,hourly; !- [J]
Output:Meter:Cumulative,InteriorLights:Electricity:Zone:ROOM_2_FLR_6 ZN,hourly; !- [J]
Output:Meter,Electricity:Zone:ROOM_3_MULT9_FLR_6 ZN,hourly; !- [J]
Output:Meter:Cumulative,Electricity:Zone:ROOM_3_MULT9_FLR_6 ZN,hourly; !- [J]
Output:Meter,InteriorLights:Electricity:Zone:ROOM_3_MULT9_FLR_6 ZN,hourly; !- [J]
Output:Meter:Cumulative,InteriorLights:Electricity:Zone:ROOM_3_MULT9_FLR_6 ZN,hourly; !- [J]
Output:Meter,Electricity:Zone:KITCHEN_FLR_6 ZN,hourly; !- [J]
Output:Meter:Cumulative,Electricity:Zone:KITCHEN_FLR_6 ZN,hourly; !- [J]
Output:Meter,InteriorLights:Electricity:Zone:KITCHEN_FLR_6 ZN,hourly; !- [J]
Output:Meter:Cumulative,InteriorLights:Electricity:Zone:KITCHEN_FLR_6 ZN,hourly; !- [J]
Output:Meter,Electricity:Zone:LAUNDRY_FLR_1 ZN,hourly; !- [J]
Output:Meter:Cumulative,Electricity:Zone:LAUNDRY_FLR_1 ZN,hourly; !- [J]
Output:Meter,InteriorLights:Electricity:Zone:LAUNDRY_FLR_1 ZN,hourly; !- [J]
Output:Meter:Cumulative,InteriorLights:Electricity:Zone:LAUNDRY_FLR_1 ZN,hourly; !- [J]
Output:Meter,Electricity:Zone:LOBBY_FLR_1 ZN,hourly; !- [J]
Output:Meter:Cumulative,Electricity:Zone:LOBBY_FLR_1 ZN,hourly; !- [J]
Output:Meter,InteriorLights:Electricity:Zone:LOBBY_FLR_1 ZN,hourly; !- [J]
Output:Meter:Cumulative,InteriorLights:Electricity:Zone:LOBBY_FLR_1 ZN,hourly; !- [J]
Output:Meter,Electricity:Zone:MECH_FLR_1 ZN,hourly; !- [J]
Output:Meter:Cumulative,Electricity:Zone:MECH_FLR_1 ZN,hourly; !- [J]
Output:Meter,InteriorLights:Electricity:Zone:MECH_FLR_1 ZN,hourly; !- [J]
Output:Meter:Cumulative,InteriorLights:Electricity:Zone:MECH_FLR_1 ZN,hourly; !- [J]
Output:Meter,Electricity:Zone:RETAIL_1_FLR_1 ZN,hourly; !- [J]
Output:Meter:Cumulative,Electricity:Zone:RETAIL_1_FLR_1 ZN,hourly; !- [J]
Output:Meter,InteriorLights:Electricity:Zone:RETAIL_1_FLR_1 ZN,hourly; !- [J]
Output:Meter:Cumulative,InteriorLights:Electricity:Zone:RETAIL_1_FLR_1 ZN,hourly; !- [J]
Output:Meter,Electricity:Zone:RETAIL_2_FLR_1 ZN,hourly; !- [J]
Output:Meter:Cumulative,Electricity:Zone:RETAIL_2_FLR_1 ZN,hourly; !- [J]
Output:Meter,InteriorLights:Electricity:Zone:RETAIL_2_FLR_1 ZN,hourly; !- [J]
Output:Meter:Cumulative,InteriorLights:Electricity:Zone:RETAIL_2_FLR_1 ZN,hourly; !- [J]
Output:Meter,Electricity:Zone:STORAGE_FLR_1 ZN,hourly; !- [J]
Output:Meter:Cumulative,Electricity:Zone:STORAGE_FLR_1 ZN,hourly; !- [J]
Output:Meter,InteriorLights:Electricity:Zone:STORAGE_FLR_1 ZN,hourly; !- [J]
Output:Meter:Cumulative,InteriorLights:Electricity:Zone:STORAGE_FLR_1 ZN,hourly; !- [J]
Output:Meter,InteriorEquipment:Electricity,hourly; !- [J]
Output:Meter:Cumulative,InteriorEquipment:Electricity,hourly; !- [J]
Output:Meter,InteriorEquipment:Electricity:Zone:BANQUET_FLR_6 ZN,hourly; !- [J]
Output:Meter:Cumulative,InteriorEquipment:Electricity:Zone:BANQUET_FLR_6 ZN,hourly; !- [J]
Output:Meter,General:InteriorEquipment:Electricity,hourly; !- [J]
Output:Meter:Cumulative,General:InteriorEquipment:Electricity,hourly; !- [J]
Output:Meter,InteriorEquipment:Electricity:Zone:DINING_FLR_6 ZN,hourly; !- [J]
Output:Meter:Cumulative,InteriorEquipment:Electricity:Zone:DINING_FLR_6 ZN,hourly; !- [J]
Output:Meter,InteriorEquipment:Electricity:Zone:BASEMENT ZN,hourly; !- [J]
Output:Meter:Cumulative,InteriorEquipment:Electricity:Zone:BASEMENT ZN,hourly; !- [J]
Output:Meter,InteriorEquipment:Electricity:Zone:CAFE_FLR_1 ZN,hourly; !- [J]
Output:Meter:Cumulative,InteriorEquipment:Electricity:Zone:CAFE_FLR_1 ZN,hourly; !- [J]
Output:Meter,InteriorEquipment:Electricity:Zone:ROOM_1_FLR_3 ZN,hourly; !- [J]
Output:Meter:Cumulative,InteriorEquipment:Electricity:Zone:ROOM_1_FLR_3 ZN,hourly; !- [J]
Output:Meter,InteriorEquipment:Electricity:Zone:ROOM_2_FLR_3 ZN,hourly; !- [J]
Output:Meter:Cumulative,InteriorEquipment:Electricity:Zone:ROOM_2_FLR_3 ZN,hourly; !- [J]
Output:Meter,InteriorEquipment:Electricity:Zone:ROOM_5_FLR_3 ZN,hourly; !- [J]
Output:Meter:Cumulative,InteriorEquipment:Electricity:Zone:ROOM_5_FLR_3 ZN,hourly; !- [J]
Output:Meter,InteriorEquipment:Electricity:Zone:ROOM_6_FLR_3 ZN,hourly; !- [J]
Output:Meter:Cumulative,InteriorEquipment:Electricity:Zone:ROOM_6_FLR_3 ZN,hourly; !- [J]
Output:Meter,InteriorEquipment:Electricity:Zone:ROOM_3_MULT19_FLR_3 ZN,hourly; !- [J]
Output:Meter:Cumulative,InteriorEquipment:Electricity:Zone:ROOM_3_MULT19_FLR_3 ZN,hourly; !- [J]
Output:Meter,InteriorEquipment:Electricity:Zone:ROOM_4_MULT19_FLR_3 ZN,hourly; !- [J]
Output:Meter:Cumulative,InteriorEquipment:Electricity:Zone:ROOM_4_MULT19_FLR_3 ZN,hourly; !- [J]
Output:Meter,InteriorEquipment:Electricity:Zone:ROOM_1_FLR_6 ZN,hourly; !- [J]
Output:Meter:Cumulative,InteriorEquipment:Electricity:Zone:ROOM_1_FLR_6 ZN,hourly; !- [J]
Output:Meter,InteriorEquipment:Electricity:Zone:ROOM_2_FLR_6 ZN,hourly; !- [J]
Output:Meter:Cumulative,InteriorEquipment:Electricity:Zone:ROOM_2_FLR_6 ZN,hourly; !- [J]
Output:Meter,InteriorEquipment:Electricity:Zone:ROOM_3_MULT9_FLR_6 ZN,hourly; !- [J]
Output:Meter:Cumulative,InteriorEquipment:Electricity:Zone:ROOM_3_MULT9_FLR_6 ZN,hourly; !- [J]
Output:Meter,InteriorEquipment:Electricity:Zone:KITCHEN_FLR_6 ZN,hourly; !- [J]
Output:Meter:Cumulative,InteriorEquipment:Electricity:Zone:KITCHEN_FLR_6 ZN,hourly; !- [J]
Output:Meter,InteriorEquipment:Electricity:Zone:LAUNDRY_FLR_1 ZN,hourly; !- [J]
Output:Meter:Cumulative,InteriorEquipment:Electricity:Zone:LAUNDRY_FLR_1 ZN,hourly; !- [J]
Output:Meter,InteriorEquipment:Electricity:Zone:LOBBY_FLR_1 ZN,hourly; !- [J]
Output:Meter:Cumulative,InteriorEquipment:Electricity:Zone:LOBBY_FLR_1 ZN,hourly; !- [J]
Output:Meter,InteriorEquipment:Electricity:Zone:MECH_FLR_1 ZN,hourly; !- [J]
Output:Meter:Cumulative,InteriorEquipment:Electricity:Zone:MECH_FLR_1 ZN,hourly; !- [J]
Output:Meter,InteriorEquipment:Electricity:Zone:RETAIL_1_FLR_1 ZN,hourly; !- [J]
Output:Meter:Cumulative,InteriorEquipment:Electricity:Zone:RETAIL_1_FLR_1 ZN,hourly; !- [J]
Output:Meter,InteriorEquipment:Electricity:Zone:RETAIL_2_FLR_1 ZN,hourly; !- [J]
Output:Meter:Cumulative,InteriorEquipment:Electricity:Zone:RETAIL_2_FLR_1 ZN,hourly; !- [J]
Output:Meter,InteriorEquipment:Electricity:Zone:STORAGE_FLR_1 ZN,hourly; !- [J]
Output:Meter:Cumulative,InteriorEquipment:Electricity:Zone:STORAGE_FLR_1 ZN,hourly; !- [J]
Output:Meter,Gas:Facility,hourly; !- [J]
Output:Meter:Cumulative,Gas:Facility,hourly; !- [J]
Output:Meter,Gas:Building,hourly; !- [J]
Output:Meter:Cumulative,Gas:Building,hourly; !- [J]
Output:Meter,Gas:Zone:KITCHEN_FLR_6 ZN,hourly; !- [J]
Output:Meter:Cumulative,Gas:Zone:KITCHEN_FLR_6 ZN,hourly; !- [J]
Output:Meter,InteriorEquipment:Gas,hourly; !- [J]
Output:Meter:Cumulative,InteriorEquipment:Gas,hourly; !- [J]
Output:Meter,InteriorEquipment:Gas:Zone:KITCHEN_FLR_6 ZN,hourly; !- [J]
Output:Meter:Cumulative,InteriorEquipment:Gas:Zone:KITCHEN_FLR_6 ZN,hourly; !- [J]
Output:Meter,General:InteriorEquipment:Gas,hourly; !- [J]
Output:Meter:Cumulative,General:InteriorEquipment:Gas,hourly; !- [J]
Output:Meter,Gas:Zone:LAUNDRY_FLR_1 ZN,hourly; !- [J]
Output:Meter:Cumulative,Gas:Zone:LAUNDRY_FLR_1 ZN,hourly; !- [J]
Output:Meter,InteriorEquipment:Gas:Zone:LAUNDRY_FLR_1 ZN,hourly; !- [J]
Output:Meter:Cumulative,InteriorEquipment:Gas:Zone:LAUNDRY_FLR_1 ZN,hourly; !- [J]
Output:Meter,PlantLoopHeatingDemand:Facility,hourly; !- [J]
Output:Meter:Cumulative,PlantLoopHeatingDemand:Facility,hourly; !- [J]
Output:Meter,PlantLoopHeatingDemand:Plant,hourly; !- [J]
Output:Meter:Cumulative,PlantLoopHeatingDemand:Plant,hourly; !- [J]
Output:Meter,WaterSystems:PlantLoopHeatingDemand,hourly; !- [J]
Output:Meter:Cumulative,WaterSystems:PlantLoopHeatingDemand,hourly; !- [J]
Output:Meter,Water Heater:WaterSystems:PlantLoopHeatingDemand,hourly; !- [J]
Output:Meter:Cumulative,Water Heater:WaterSystems:PlantLoopHeatingDemand,hourly; !- [J]
Output:Meter,Gas:Plant,hourly; !- [J]
Output:Meter:Cumulative,Gas:Plant,hourly; !- [J]
Output:Meter,WaterSystems:Gas,hourly; !- [J]
Output:Meter:Cumulative,WaterSystems:Gas,hourly; !- [J]
Output:Meter,Water Heater:WaterSystems:Gas,hourly; !- [J]
Output:Meter:Cumulative,Water Heater:WaterSystems:Gas,hourly; !- [J]
Output:Meter,Water:Facility,hourly; !- [m3]
Output:Meter:Cumulative,Water:Facility,hourly; !- [m3]
Output:Meter,Water:Plant,hourly; !- [m3]
Output:Meter:Cumulative,Water:Plant,hourly; !- [m3]
Output:Meter,WaterSystems:Water,hourly; !- [m3]
Output:Meter:Cumulative,WaterSystems:Water,hourly; !- [m3]
Output:Meter,Water Heater:WaterSystems:Water,hourly; !- [m3]
Output:Meter:Cumulative,Water Heater:WaterSystems:Water,hourly; !- [m3]
Output:Meter,MainsWater:Facility,hourly; !- [m3]
Output:Meter:Cumulative,MainsWater:Facility,hourly; !- [m3]
Output:Meter,MainsWater:Plant,hourly; !- [m3]
Output:Meter:Cumulative,MainsWater:Plant,hourly; !- [m3]
Output:Meter,WaterSystems:MainsWater,hourly; !- [m3]
Output:Meter:Cumulative,WaterSystems:MainsWater,hourly; !- [m3]
Output:Meter,Water Heater:WaterSystems:MainsWater,hourly; !- [m3]
Output:Meter:Cumulative,Water Heater:WaterSystems:MainsWater,hourly; !- [m3]
Output:Meter,Electricity:Plant,hourly; !- [J]
Output:Meter:Cumulative,Electricity:Plant,hourly; !- [J]
Output:Meter,WaterSystems:Electricity,hourly; !- [J]
Output:Meter:Cumulative,WaterSystems:Electricity,hourly; !- [J]
Output:Meter,Water Heater:WaterSystems:Electricity,hourly; !- [J]
Output:Meter:Cumulative,Water Heater:WaterSystems:Electricity,hourly; !- [J]
Output:Meter,EnergyTransfer:Facility,hourly; !- [J]
Output:Meter:Cumulative,EnergyTransfer:Facility,hourly; !- [J]
Output:Meter,EnergyTransfer:Building,hourly; !- [J]
Output:Meter:Cumulative,EnergyTransfer:Building,hourly; !- [J]
Output:Meter,EnergyTransfer:Zone:BANQUET_FLR_6 ZN,hourly; !- [J]
Output:Meter:Cumulative,EnergyTransfer:Zone:BANQUET_FLR_6 ZN,hourly; !- [J]
Output:Meter,Heating:EnergyTransfer,hourly; !- [J]
Output:Meter:Cumulative,Heating:EnergyTransfer,hourly; !- [J]
Output:Meter,Heating:EnergyTransfer:Zone:BANQUET_FLR_6 ZN,hourly; !- [J]
Output:Meter:Cumulative,Heating:EnergyTransfer:Zone:BANQUET_FLR_6 ZN,hourly; !- [J]
Output:Meter,Cooling:EnergyTransfer,hourly; !- [J]
Output:Meter:Cumulative,Cooling:EnergyTransfer,hourly; !- [J]
Output:Meter,Cooling:EnergyTransfer:Zone:BANQUET_FLR_6 ZN,hourly; !- [J]
Output:Meter:Cumulative,Cooling:EnergyTransfer:Zone:BANQUET_FLR_6 ZN,hourly; !- [J]
Output:Meter,EnergyTransfer:Zone:BASEMENT ZN,hourly; !- [J]
Output:Meter:Cumulative,EnergyTransfer:Zone:BASEMENT ZN,hourly; !- [J]
Output:Meter,Heating:EnergyTransfer:Zone:BASEMENT ZN,hourly; !- [J]
Output:Meter:Cumulative,Heating:EnergyTransfer:Zone:BASEMENT ZN,hourly; !- [J]
Output:Meter,Cooling:EnergyTransfer:Zone:BASEMENT ZN,hourly; !- [J]
Output:Meter:Cumulative,Cooling:EnergyTransfer:Zone:BASEMENT ZN,hourly; !- [J]
Output:Meter,EnergyTransfer:Zone:CAFE_FLR_1 ZN,hourly; !- [J]
Output:Meter:Cumulative,EnergyTransfer:Zone:CAFE_FLR_1 ZN,hourly; !- [J]
Output:Meter,Heating:EnergyTransfer:Zone:CAFE_FLR_1 ZN,hourly; !- [J]
Output:Meter:Cumulative,Heating:EnergyTransfer:Zone:CAFE_FLR_1 ZN,hourly; !- [J]
Output:Meter,Cooling:EnergyTransfer:Zone:CAFE_FLR_1 ZN,hourly; !- [J]
Output:Meter:Cumulative,Cooling:EnergyTransfer:Zone:CAFE_FLR_1 ZN,hourly; !- [J]
Output:Meter,EnergyTransfer:Zone:CORRIDOR_FLR_3 ZN,hourly; !- [J]
Output:Meter:Cumulative,EnergyTransfer:Zone:CORRIDOR_FLR_3 ZN,hourly; !- [J]
Output:Meter,Heating:EnergyTransfer:Zone:CORRIDOR_FLR_3 ZN,hourly; !- [J]
Output:Meter:Cumulative,Heating:EnergyTransfer:Zone:CORRIDOR_FLR_3 ZN,hourly; !- [J]
Output:Meter,Cooling:EnergyTransfer:Zone:CORRIDOR_FLR_3 ZN,hourly; !- [J]
Output:Meter:Cumulative,Cooling:EnergyTransfer:Zone:CORRIDOR_FLR_3 ZN,hourly; !- [J]
Output:Meter,EnergyTransfer:Zone:CORRIDOR_FLR_6 ZN,hourly; !- [J]
Output:Meter:Cumulative,EnergyTransfer:Zone:CORRIDOR_FLR_6 ZN,hourly; !- [J]
Output:Meter,Heating:EnergyTransfer:Zone:CORRIDOR_FLR_6 ZN,hourly; !- [J]
Output:Meter:Cumulative,Heating:EnergyTransfer:Zone:CORRIDOR_FLR_6 ZN,hourly; !- [J]
Output:Meter,Cooling:EnergyTransfer:Zone:CORRIDOR_FLR_6 ZN,hourly; !- [J]
Output:Meter:Cumulative,Cooling:EnergyTransfer:Zone:CORRIDOR_FLR_6 ZN,hourly; !- [J]
Output:Meter,EnergyTransfer:Zone:DINING_FLR_6 ZN,hourly; !- [J]
Output:Meter:Cumulative,EnergyTransfer:Zone:DINING_FLR_6 ZN,hourly; !- [J]
Output:Meter,Heating:EnergyTransfer:Zone:DINING_FLR_6 ZN,hourly; !- [J]
Output:Meter:Cumulative,Heating:EnergyTransfer:Zone:DINING_FLR_6 ZN,hourly; !- [J]
Output:Meter,Cooling:EnergyTransfer:Zone:DINING_FLR_6 ZN,hourly; !- [J]
Output:Meter:Cumulative,Cooling:EnergyTransfer:Zone:DINING_FLR_6 ZN,hourly; !- [J]
Output:Meter,EnergyTransfer:Zone:KITCHEN_FLR_6 ZN,hourly; !- [J]
Output:Meter:Cumulative,EnergyTransfer:Zone:KITCHEN_FLR_6 ZN,hourly; !- [J]
Output:Meter,Heating:EnergyTransfer:Zone:KITCHEN_FLR_6 ZN,hourly; !- [J]
Output:Meter:Cumulative,Heating:EnergyTransfer:Zone:KITCHEN_FLR_6 ZN,hourly; !- [J]
Output:Meter,Cooling:EnergyTransfer:Zone:KITCHEN_FLR_6 ZN,hourly; !- [J]
Output:Meter:Cumulative,Cooling:EnergyTransfer:Zone:KITCHEN_FLR_6 ZN,hourly; !- [J]
Output:Meter,EnergyTransfer:Zone:LAUNDRY_FLR_1 ZN,hourly; !- [J]
Output:Meter:Cumulative,EnergyTransfer:Zone:LAUNDRY_FLR_1 ZN,hourly; !- [J]
Output:Meter,Heating:EnergyTransfer:Zone:LAUNDRY_FLR_1 ZN,hourly; !- [J]
Output:Meter:Cumulative,Heating:EnergyTransfer:Zone:LAUNDRY_FLR_1 ZN,hourly; !- [J]
Output:Meter,Cooling:EnergyTransfer:Zone:LAUNDRY_FLR_1 ZN,hourly; !- [J]
Output:Meter:Cumulative,Cooling:EnergyTransfer:Zone:LAUNDRY_FLR_1 ZN,hourly; !- [J]
Output:Meter,EnergyTransfer:Zone:LOBBY_FLR_1 ZN,hourly; !- [J]
Output:Meter:Cumulative,EnergyTransfer:Zone:LOBBY_FLR_1 ZN,hourly; !- [J]
Output:Meter,Heating:EnergyTransfer:Zone:LOBBY_FLR_1 ZN,hourly; !- [J]
Output:Meter:Cumulative,Heating:EnergyTransfer:Zone:LOBBY_FLR_1 ZN,hourly; !- [J]
Output:Meter,Cooling:EnergyTransfer:Zone:LOBBY_FLR_1 ZN,hourly; !- [J]
Output:Meter:Cumulative,Cooling:EnergyTransfer:Zone:LOBBY_FLR_1 ZN,hourly; !- [J]
Output:Meter,EnergyTransfer:Zone:MECH_FLR_1 ZN,hourly; !- [J]
Output:Meter:Cumulative,EnergyTransfer:Zone:MECH_FLR_1 ZN,hourly; !- [J]
Output:Meter,Heating:EnergyTransfer:Zone:MECH_FLR_1 ZN,hourly; !- [J]
Output:Meter:Cumulative,Heating:EnergyTransfer:Zone:MECH_FLR_1 ZN,hourly; !- [J]
Output:Meter,Cooling:EnergyTransfer:Zone:MECH_FLR_1 ZN,hourly; !- [J]
Output:Meter:Cumulative,Cooling:EnergyTransfer:Zone:MECH_FLR_1 ZN,hourly; !- [J]
Output:Meter,EnergyTransfer:Zone:RETAIL_1_FLR_1 ZN,hourly; !- [J]
Output:Meter:Cumulative,EnergyTransfer:Zone:RETAIL_1_FLR_1 ZN,hourly; !- [J]
Output:Meter,Heating:EnergyTransfer:Zone:RETAIL_1_FLR_1 ZN,hourly; !- [J]
Output:Meter:Cumulative,Heating:EnergyTransfer:Zone:RETAIL_1_FLR_1 ZN,hourly; !- [J]
Output:Meter,Cooling:EnergyTransfer:Zone:RETAIL_1_FLR_1 ZN,hourly; !- [J]
Output:Meter:Cumulative,Cooling:EnergyTransfer:Zone:RETAIL_1_FLR_1 ZN,hourly; !- [J]
Output:Meter,EnergyTransfer:Zone:RETAIL_2_FLR_1 ZN,hourly; !- [J]
Output:Meter:Cumulative,EnergyTransfer:Zone:RETAIL_2_FLR_1 ZN,hourly; !- [J]
Output:Meter,Heating:EnergyTransfer:Zone:RETAIL_2_FLR_1 ZN,hourly; !- [J]
Output:Meter:Cumulative,Heating:EnergyTransfer:Zone:RETAIL_2_FLR_1 ZN,hourly; !- [J]
Output:Meter,Cooling:EnergyTransfer:Zone:RETAIL_2_FLR_1 ZN,hourly; !- [J]
Output:Meter:Cumulative,Cooling:EnergyTransfer:Zone:RETAIL_2_FLR_1 ZN,hourly; !- [J]
Output:Meter,EnergyTransfer:Zone:ROOM_1_FLR_3 ZN,hourly; !- [J]
Output:Meter:Cumulative,EnergyTransfer:Zone:ROOM_1_FLR_3 ZN,hourly; !- [J]
Output:Meter,Heating:EnergyTransfer:Zone:ROOM_1_FLR_3 ZN,hourly; !- [J]
Output:Meter:Cumulative,Heating:EnergyTransfer:Zone:ROOM_1_FLR_3 ZN,hourly; !- [J]
Output:Meter,Cooling:EnergyTransfer:Zone:ROOM_1_FLR_3 ZN,hourly; !- [J]
Output:Meter:Cumulative,Cooling:EnergyTransfer:Zone:ROOM_1_FLR_3 ZN,hourly; !- [J]
Output:Meter,EnergyTransfer:Zone:ROOM_1_FLR_6 ZN,hourly; !- [J]
Output:Meter:Cumulative,EnergyTransfer:Zone:ROOM_1_FLR_6 ZN,hourly; !- [J]
Output:Meter,Heating:EnergyTransfer:Zone:ROOM_1_FLR_6 ZN,hourly; !- [J]
Output:Meter:Cumulative,Heating:EnergyTransfer:Zone:ROOM_1_FLR_6 ZN,hourly; !- [J]
Output:Meter,Cooling:EnergyTransfer:Zone:ROOM_1_FLR_6 ZN,hourly; !- [J]
Output:Meter:Cumulative,Cooling:EnergyTransfer:Zone:ROOM_1_FLR_6 ZN,hourly; !- [J]
Output:Meter,EnergyTransfer:Zone:ROOM_2_FLR_3 ZN,hourly; !- [J]
Output:Meter:Cumulative,EnergyTransfer:Zone:ROOM_2_FLR_3 ZN,hourly; !- [J]
Output:Meter,Heating:EnergyTransfer:Zone:ROOM_2_FLR_3 ZN,hourly; !- [J]
Output:Meter:Cumulative,Heating:EnergyTransfer:Zone:ROOM_2_FLR_3 ZN,hourly; !- [J]
Output:Meter,Cooling:EnergyTransfer:Zone:ROOM_2_FLR_3 ZN,hourly; !- [J]
Output:Meter:Cumulative,Cooling:EnergyTransfer:Zone:ROOM_2_FLR_3 ZN,hourly; !- [J]
Output:Meter,EnergyTransfer:Zone:ROOM_2_FLR_6 ZN,hourly; !- [J]
Output:Meter:Cumulative,EnergyTransfer:Zone:ROOM_2_FLR_6 ZN,hourly; !- [J]
Output:Meter,Heating:EnergyTransfer:Zone:ROOM_2_FLR_6 ZN,hourly; !- [J]
Output:Meter:Cumulative,Heating:EnergyTransfer:Zone:ROOM_2_FLR_6 ZN,hourly; !- [J]
Output:Meter,Cooling:EnergyTransfer:Zone:ROOM_2_FLR_6 ZN,hourly; !- [J]
Output:Meter:Cumulative,Cooling:EnergyTransfer:Zone:ROOM_2_FLR_6 ZN,hourly; !- [J]
Output:Meter,EnergyTransfer:Zone:ROOM_3_MULT19_FLR_3 ZN,hourly; !- [J]
Output:Meter:Cumulative,EnergyTransfer:Zone:ROOM_3_MULT19_FLR_3 ZN,hourly; !- [J]
Output:Meter,Heating:EnergyTransfer:Zone:ROOM_3_MULT19_FLR_3 ZN,hourly; !- [J]
Output:Meter:Cumulative,Heating:EnergyTransfer:Zone:ROOM_3_MULT19_FLR_3 ZN,hourly; !- [J]
Output:Meter,Cooling:EnergyTransfer:Zone:ROOM_3_MULT19_FLR_3 ZN,hourly; !- [J]
Output:Meter:Cumulative,Cooling:EnergyTransfer:Zone:ROOM_3_MULT19_FLR_3 ZN,hourly; !- [J]
Output:Meter,EnergyTransfer:Zone:ROOM_3_MULT9_FLR_6 ZN,hourly; !- [J]
Output:Meter:Cumulative,EnergyTransfer:Zone:ROOM_3_MULT9_FLR_6 ZN,hourly; !- [J]
Output:Meter,Heating:EnergyTransfer:Zone:ROOM_3_MULT9_FLR_6 ZN,hourly; !- [J]
Output:Meter:Cumulative,Heating:EnergyTransfer:Zone:ROOM_3_MULT9_FLR_6 ZN,hourly; !- [J]
Output:Meter,Cooling:EnergyTransfer:Zone:ROOM_3_MULT9_FLR_6 ZN,hourly; !- [J]
Output:Meter:Cumulative,Cooling:EnergyTransfer:Zone:ROOM_3_MULT9_FLR_6 ZN,hourly; !- [J]
Output:Meter,EnergyTransfer:Zone:ROOM_4_MULT19_FLR_3 ZN,hourly; !- [J]
Output:Meter:Cumulative,EnergyTransfer:Zone:ROOM_4_MULT19_FLR_3 ZN,hourly; !- [J]
Output:Meter,Heating:EnergyTransfer:Zone:ROOM_4_MULT19_FLR_3 ZN,hourly; !- [J]
Output:Meter:Cumulative,Heating:EnergyTransfer:Zone:ROOM_4_MULT19_FLR_3 ZN,hourly; !- [J]
Output:Meter,Cooling:EnergyTransfer:Zone:ROOM_4_MULT19_FLR_3 ZN,hourly; !- [J]
Output:Meter:Cumulative,Cooling:EnergyTransfer:Zone:ROOM_4_MULT19_FLR_3 ZN,hourly; !- [J]
Output:Meter,EnergyTransfer:Zone:ROOM_5_FLR_3 ZN,hourly; !- [J]
Output:Meter:Cumulative,EnergyTransfer:Zone:ROOM_5_FLR_3 ZN,hourly; !- [J]
Output:Meter,Heating:EnergyTransfer:Zone:ROOM_5_FLR_3 ZN,hourly; !- [J]
Output:Meter:Cumulative,Heating:EnergyTransfer:Zone:ROOM_5_FLR_3 ZN,hourly; !- [J]
Output:Meter,Cooling:EnergyTransfer:Zone:ROOM_5_FLR_3 ZN,hourly; !- [J]
Output:Meter:Cumulative,Cooling:EnergyTransfer:Zone:ROOM_5_FLR_3 ZN,hourly; !- [J]
Output:Meter,EnergyTransfer:Zone:ROOM_6_FLR_3 ZN,hourly; !- [J]
Output:Meter:Cumulative,EnergyTransfer:Zone:ROOM_6_FLR_3 ZN,hourly; !- [J]
Output:Meter,Heating:EnergyTransfer:Zone:ROOM_6_FLR_3 ZN,hourly; !- [J]
Output:Meter:Cumulative,Heating:EnergyTransfer:Zone:ROOM_6_FLR_3 ZN,hourly; !- [J]
Output:Meter,Cooling:EnergyTransfer:Zone:ROOM_6_FLR_3 ZN,hourly; !- [J]
Output:Meter:Cumulative,Cooling:EnergyTransfer:Zone:ROOM_6_FLR_3 ZN,hourly; !- [J]
Output:Meter,EnergyTransfer:Zone:STORAGE_FLR_1 ZN,hourly; !- [J]
Output:Meter:Cumulative,EnergyTransfer:Zone:STORAGE_FLR_1 ZN,hourly; !- [J]
Output:Meter,Heating:EnergyTransfer:Zone:STORAGE_FLR_1 ZN,hourly; !- [J]
Output:Meter:Cumulative,Heating:EnergyTransfer:Zone:STORAGE_FLR_1 ZN,hourly; !- [J]
Output:Meter,Cooling:EnergyTransfer:Zone:STORAGE_FLR_1 ZN,hourly; !- [J]
Output:Meter:Cumulative,Cooling:EnergyTransfer:Zone:STORAGE_FLR_1 ZN,hourly; !- [J]
Output:Meter,General:WaterSystems:Water,hourly; !- [m3]
Output:Meter:Cumulative,General:WaterSystems:Water,hourly; !- [m3]
Output:Meter,General:WaterSystems:MainsWater,hourly; !- [m3]
Output:Meter:Cumulative,General:WaterSystems:MainsWater,hourly; !- [m3]
Output:Meter,EnergyTransfer:Plant,hourly; !- [J]
Output:Meter:Cumulative,EnergyTransfer:Plant,hourly; !- [J]
Output:Meter,WaterSystems:EnergyTransfer,hourly; !- [J]
Output:Meter:Cumulative,WaterSystems:EnergyTransfer,hourly; !- [J]
Output:Meter,General:WaterSystems:EnergyTransfer,hourly; !- [J]
Output:Meter:Cumulative,General:WaterSystems:EnergyTransfer,hourly; !- [J]
Output:Meter,ElectricityPurchased:Facility,hourly; !- [J]
Output:Meter:Cumulative,ElectricityPurchased:Facility,hourly; !- [J]
Output:Meter,ElectricityPurchased:Plant,hourly; !- [J]
Output:Meter:Cumulative,ElectricityPurchased:Plant,hourly; !- [J]
Output:Meter,Cogeneration:ElectricityPurchased,hourly; !- [J]
Output:Meter:Cumulative,Cogeneration:ElectricityPurchased,hourly; !- [J]
Output:Meter,ElectricitySurplusSold:Facility,hourly; !- [J]
Output:Meter:Cumulative,ElectricitySurplusSold:Facility,hourly; !- [J]
Output:Meter,ElectricitySurplusSold:Plant,hourly; !- [J]
Output:Meter:Cumulative,ElectricitySurplusSold:Plant,hourly; !- [J]
Output:Meter,Cogeneration:ElectricitySurplusSold,hourly; !- [J]
Output:Meter:Cumulative,Cogeneration:ElectricitySurplusSold,hourly; !- [J]
Output:Meter,ElectricityNet:Facility,hourly; !- [J]
Output:Meter:Cumulative,ElectricityNet:Facility,hourly; !- [J]
Output:Meter,ElectricityNet:Plant,hourly; !- [J]
Output:Meter:Cumulative,ElectricityNet:Plant,hourly; !- [J]
Output:Meter,Cogeneration:ElectricityNet,hourly; !- [J]
Output:Meter:Cumulative,Cogeneration:ElectricityNet,hourly; !- [J]
Output:Meter,EnergyTransfer:HVAC,hourly; !- [J]
Output:Meter:Cumulative,EnergyTransfer:HVAC,hourly; !- [J]
Output:Meter,HeatingCoils:EnergyTransfer,hourly; !- [J]
Output:Meter:Cumulative,HeatingCoils:EnergyTransfer,hourly; !- [J]
Output:Meter,PlantLoopHeatingDemand:HVAC,hourly; !- [J]
Output:Meter:Cumulative,PlantLoopHeatingDemand:HVAC,hourly; !- [J]
Output:Meter,HeatingCoils:PlantLoopHeatingDemand,hourly; !- [J]
Output:Meter:Cumulative,HeatingCoils:PlantLoopHeatingDemand,hourly; !- [J]
Output:Meter,CoolingCoils:EnergyTransfer,hourly; !- [J]
Output:Meter:Cumulative,CoolingCoils:EnergyTransfer,hourly; !- [J]
Output:Meter,PlantLoopCoolingDemand:Facility,hourly; !- [J]
Output:Meter:Cumulative,PlantLoopCoolingDemand:Facility,hourly; !- [J]
Output:Meter,PlantLoopCoolingDemand:HVAC,hourly; !- [J]
Output:Meter:Cumulative,PlantLoopCoolingDemand:HVAC,hourly; !- [J]
Output:Meter,CoolingCoils:PlantLoopCoolingDemand,hourly; !- [J]
Output:Meter:Cumulative,CoolingCoils:PlantLoopCoolingDemand,hourly; !- [J]
Output:Meter,Electricity:HVAC,hourly; !- [J]
Output:Meter:Cumulative,Electricity:HVAC,hourly; !- [J]
Output:Meter,Fans:Electricity,hourly; !- [J]
Output:Meter:Cumulative,Fans:Electricity,hourly; !- [J]
Output:Meter,General:Fans:Electricity,hourly; !- [J]
Output:Meter:Cumulative,General:Fans:Electricity,hourly; !- [J]
Output:Meter,FCU Fans:Fans:Electricity,hourly; !- [J]
Output:Meter:Cumulative,FCU Fans:Fans:Electricity,hourly; !- [J]
Output:Meter,ExteriorLights:Electricity,hourly; !- [J]
Output:Meter:Cumulative,ExteriorLights:Electricity,hourly; !- [J]
Output:Meter,General:ExteriorLights:Electricity,hourly; !- [J]
Output:Meter:Cumulative,General:ExteriorLights:Electricity,hourly; !- [J]
Output:Meter,LoopToLoop:EnergyTransfer,hourly; !- [J]
Output:Meter:Cumulative,LoopToLoop:EnergyTransfer,hourly; !- [J]
Output:Meter,Cooling:Electricity,hourly; !- [J]
Output:Meter:Cumulative,Cooling:Electricity,hourly; !- [J]
Output:Meter,Chillers:EnergyTransfer,hourly; !- [J]
Output:Meter:Cumulative,Chillers:EnergyTransfer,hourly; !- [J]
Output:Meter,HeatRejection:EnergyTransfer,hourly; !- [J]
Output:Meter:Cumulative,HeatRejection:EnergyTransfer,hourly; !- [J]
Output:Meter,Boilers:EnergyTransfer,hourly; !- [J]
Output:Meter:Cumulative,Boilers:EnergyTransfer,hourly; !- [J]
Output:Meter,Heating:Gas,hourly; !- [J]
Output:Meter:Cumulative,Heating:Gas,hourly; !- [J]
Output:Meter,Boiler:Heating:Gas,hourly; !- [J]
Output:Meter:Cumulative,Boiler:Heating:Gas,hourly; !- [J]
Output:Meter,Heating:Electricity,hourly; !- [J]
Output:Meter:Cumulative,Heating:Electricity,hourly; !- [J]
Output:Meter,Boiler Parasitic:Heating:Electricity,hourly; !- [J]
Output:Meter:Cumulative,Boiler Parasitic:Heating:Electricity,hourly; !- [J]
Output:Meter,Pumps:Electricity,hourly; !- [J]
Output:Meter:Cumulative,Pumps:Electricity,hourly; !- [J]
Output:Meter,Carbon Equivalent:Facility,hourly; !- [kg]
Output:Meter:Cumulative,Carbon Equivalent:Facility,hourly; !- [kg]
Output:Meter,CarbonEquivalentEmissions:Carbon Equivalent,hourly; !- [kg]
Output:Meter:Cumulative,CarbonEquivalentEmissions:Carbon Equivalent,hourly; !- [kg]
