Program Version,EnergyPlus, Version 8.3.0-6d97d074ea, YMD=2015.09.15 11:18
! This file shows details about the branches, nodes, and other
! elements of the flow connections.
! This file is intended for use in "debugging" potential problems
! that may also be detected by the program, but may be more easily
! identified by "eye".
! This file is also intended to support software which draws a
! schematic diagram of the HVAC system.
! ===============================================================
! #Nodes,<Number of Unique Nodes>
 #Nodes,353
! <Node>,<NodeNumber>,<Node Name>,<Node Fluid Type>,<# Times Node Referenced After Definition>
 Node,1,NODE 112,Air,4
 Node,2,NODE 56,Air,4
 Node,3,NODE 97,Air,4
 Node,4,NODE 107,Air,4
 Node,5,NODE 122,Air,4
 Node,6,NODE 117,Air,4
 Node,7,NODE 127,Air,4
 Node,8,NODE 92,Air,4
 Node,9,NODE 102,Air,4
 Node,10,NODE 82,Air,4
 Node,11,NODE 72,Air,4
 Node,12,NODE 77,Air,4
 Node,13,NODE 149,Air,3
 Node,14,NODE 134,Air,3
 Node,15,NODE 148,Air,3
 Node,16,NODE 196,Air,3
 Node,17,NODE 197,Air,3
 Node,18,NODE 195,Air,3
 Node,19,NODE 156,Air,3
 Node,20,NODE 157,Air,3
 Node,21,NODE 155,Air,3
 Node,22,NODE 204,Air,3
 Node,23,NODE 205,Air,3
 Node,24,NODE 203,Air,3
 Node,25,NODE 164,Air,3
 Node,26,NODE 165,Air,3
 Node,27,NODE 163,Air,3
 Node,28,NODE 212,Air,3
 Node,29,NODE 213,Air,3
 Node,30,NODE 211,Air,3
 Node,31,NODE 172,Air,3
 Node,32,NODE 173,Air,3
 Node,33,NODE 171,Air,3
 Node,34,NODE 180,Air,3
 Node,35,NODE 181,Air,3
 Node,36,NODE 179,Air,3
 Node,37,NODE 188,Air,3
 Node,38,NODE 189,Air,3
 Node,39,NODE 187,Air,3
 Node,40,NODE 87,Air,4
 Node,41,NODE 131,Air,10
 Node,42,NODE 132,Air,3
 Node,43,NODE 53,Air,10
 Node,44,NODE 54,Air,3
 Node,45,NODE 130,Air,3
 Node,46,NODE 143,Air,5
 Node,47,NODE 140,Air,5
 Node,48,NODE 137,Air,8
 Node,49,NODE 52,Air,3
 Node,50,NODE 65,Air,5
 Node,51,NODE 60,Air,5
 Node,52,NODE 57,Air,8
 Node,53,NODE 23,Water,2
 Node,54,NODE 29,Water,1
 Node,55,NODE 25,Water,1
 Node,56,NODE 31,Water,1
 Node,57,NODE 32,Water,1
 Node,58,NODE 33,Water,1
 Node,59,NODE 35,Water,1
 Node,60,NODE 24,Water,4
 Node,61,NODE 26,Water,2
 Node,62,NODE 36,Water,3
 Node,63,NODE 30,Water,1
 Node,64,NODE 28,Water,1
 Node,65,NODE 34,Water,1
 Node,66,NODE 61,Water,2
 Node,67,NODE 62,Water,1
 Node,68,NODE 138,Water,2
 Node,69,NODE 139,Water,1
 Node,70,NODE 144,Water,1
 Node,71,NODE 145,Water,1
 Node,72,NODE 151,Water,1
 Node,73,NODE 152,Water,1
 Node,74,NODE 159,Water,1
 Node,75,NODE 160,Water,1
 Node,76,NODE 167,Water,1
 Node,77,NODE 168,Water,1
 Node,78,NODE 175,Water,1
 Node,79,NODE 176,Water,1
 Node,80,NODE 183,Water,1
 Node,81,NODE 184,Water,1
 Node,82,NODE 191,Water,1
 Node,83,NODE 192,Water,1
 Node,84,NODE 199,Water,1
 Node,85,NODE 200,Water,1
 Node,86,NODE 207,Water,1
 Node,87,NODE 208,Water,1
 Node,88,CHILLED WATER LOOP DEMAND BYPASS PIPE INLET NODE,Water,1
 Node,89,CHILLED WATER LOOP DEMAND BYPASS PIPE OUTLET NODE,Water,1
 Node,90,NODE 37,Water,1
 Node,91,NODE 27,Water,2
 Node,92,NODE 38,Water,2
 Node,93,NODE 44,Water,1
 Node,94,NODE 40,Water,1
 Node,95,NODE 45,Water,1
 Node,96,NODE 46,Water,1
 Node,97,NODE 47,Water,1
 Node,98,NODE 49,Water,1
 Node,99,NODE 39,Water,4
 Node,100,NODE 41,Water,2
 Node,101,NODE 50,Water,1
 Node,102,NODE 43,Water,1
 Node,103,NODE 48,Water,1
 Node,104,NODE 58,Water,2
 Node,105,NODE 59,Water,1
 Node,106,NODE 66,Water,1
 Node,107,NODE 67,Water,1
 Node,108,NODE 70,Water,1
 Node,109,NODE 71,Water,1
 Node,110,NODE 75,Water,1
 Node,111,NODE 76,Water,1
 Node,112,NODE 80,Water,1
 Node,113,NODE 81,Water,1
 Node,114,NODE 85,Water,1
 Node,115,NODE 86,Water,1
 Node,116,NODE 90,Water,1
 Node,117,NODE 91,Water,1
 Node,118,NODE 95,Water,1
 Node,119,NODE 96,Water,1
 Node,120,NODE 100,Water,1
 Node,121,NODE 101,Water,1
 Node,122,NODE 105,Water,1
 Node,123,NODE 106,Water,1
 Node,124,NODE 110,Water,1
 Node,125,NODE 111,Water,1
 Node,126,NODE 115,Water,1
 Node,127,NODE 116,Water,1
 Node,128,NODE 120,Water,1
 Node,129,NODE 121,Water,1
 Node,130,NODE 125,Water,1
 Node,131,NODE 126,Water,1
 Node,132,NODE 135,Water,2
 Node,133,NODE 136,Water,1
 Node,134,NODE 146,Water,1
 Node,135,NODE 147,Water,1
 Node,136,NODE 153,Water,1
 Node,137,NODE 154,Water,1
 Node,138,NODE 161,Water,1
 Node,139,NODE 162,Water,1
 Node,140,NODE 169,Water,1
 Node,141,NODE 170,Water,1
 Node,142,NODE 177,Water,1
 Node,143,NODE 178,Water,1
 Node,144,NODE 185,Water,1
 Node,145,NODE 186,Water,1
 Node,146,NODE 193,Water,1
 Node,147,NODE 194,Water,1
 Node,148,NODE 201,Water,1
 Node,149,NODE 202,Water,1
 Node,150,NODE 209,Water,1
 Node,151,NODE 210,Water,1
 Node,152,HOT WATER LOOP DEMAND BYPASS PIPE INLET NODE,Water,1
 Node,153,HOT WATER LOOP DEMAND BYPASS PIPE OUTLET NODE,Water,1
 Node,154,NODE 51,Water,1
 Node,155,NODE 42,Water,2
 Node,156,NODE 249,Water,2
 Node,157,NODE 255,Water,1
 Node,158,NODE 251,Water,1
 Node,159,NODE 256,Water,1
 Node,160,NODE 257,Water,1
 Node,161,NODE 258,Water,1
 Node,162,NODE 260,Water,1
 Node,163,NODE 250,Water,4
 Node,164,NODE 252,Water,2
 Node,165,NODE 261,Water,1
 Node,166,NODE 254,Water,1
 Node,167,NODE 259,Water,1
 Node,168,NODE 263,Water,1
 Node,169,NODE 264,Water,1
 Node,170,LAUNDRY SERVICE WATER LOOP DEMAND BYPASS PIPE INLET NODE,Water,1
 Node,171,LAUNDRY SERVICE WATER LOOP DEMAND BYPASS PIPE OUTLET NODE,Water,1
 Node,172,NODE 262,Water,1
 Node,173,NODE 253,Water,2
 Node,174,NODE 215,Water,2
 Node,175,NODE 221,Water,1
 Node,176,NODE 217,Water,1
 Node,177,NODE 222,Water,1
 Node,178,NODE 223,Water,1
 Node,179,NODE 224,Water,1
 Node,180,NODE 226,Water,1
 Node,181,NODE 216,Water,4
 Node,182,NODE 218,Water,2
 Node,183,NODE 227,Water,1
 Node,184,NODE 220,Water,1
 Node,185,NODE 225,Water,1
 Node,186,NODE 229,Water,1
 Node,187,NODE 230,Water,1
 Node,188,NODE 231,Water,1
 Node,189,NODE 232,Water,1
 Node,190,NODE 233,Water,1
 Node,191,NODE 234,Water,1
 Node,192,NODE 235,Water,1
 Node,193,NODE 236,Water,1
 Node,194,NODE 237,Water,1
 Node,195,NODE 238,Water,1
 Node,196,NODE 239,Water,1
 Node,197,NODE 240,Water,1
 Node,198,NODE 241,Water,1
 Node,199,NODE 242,Water,1
 Node,200,NODE 243,Water,1
 Node,201,NODE 244,Water,1
 Node,202,NODE 245,Water,1
 Node,203,NODE 246,Water,1
 Node,204,NODE 247,Water,1
 Node,205,NODE 248,Water,1
 Node,206,NODE 280,Water,1
 Node,207,NODE 281,Water,1
 Node,208,MAIN SERVICE WATER LOOP DEMAND BYPASS PIPE INLET NODE,Water,1
 Node,209,MAIN SERVICE WATER LOOP DEMAND BYPASS PIPE OUTLET NODE,Water,1
 Node,210,NODE 228,Water,1
 Node,211,NODE 219,Water,2
 Node,212,NODE 265,Water,2
 Node,213,NODE 279,Water,4
 Node,214,NODE 271,Water,1
 Node,215,NODE 267,Water,1
 Node,216,NODE 272,Water,1
 Node,217,NODE 273,Water,1
 Node,218,NODE 274,Water,1
 Node,219,NODE 276,Water,1
 Node,220,NODE 266,Water,4
 Node,221,NODE 268,Water,2
 Node,222,NODE 277,Water,1
 Node,223,NODE 270,Water,1
 Node,224,NODE 275,Water,1
 Node,225,NODE 282,Water,1
 Node,226,NODE 283,Water,1
 Node,227,SERVICE WATER LOOP DEMAND BYPASS PIPE INLET NODE,Water,1
 Node,228,SERVICE WATER LOOP DEMAND BYPASS PIPE OUTLET NODE,Water,1
 Node,229,NODE 278,Water,1
 Node,230,NODE 269,Water,2
 Node,231,ROOM_1_FLR_3 ZNFCU OA NODE,Air,1
 Node,232,ROOM_1_FLR_6 ZNFCU OA NODE,Air,1
 Node,233,ROOM_2_FLR_3 ZNFCU OA NODE,Air,1
 Node,234,ROOM_2_FLR_6 ZNFCU OA NODE,Air,1
 Node,235,ROOM_3_MULT19_FLR_3 ZNFCU OA NODE,Air,1
 Node,236,ROOM_3_MULT9_FLR_6 ZNFCU OA NODE,Air,1
 Node,237,ROOM_4_MULT19_FLR_3 ZNFCU OA NODE,Air,1
 Node,238,ROOM_5_FLR_3 ZNFCU OA NODE,Air,1
 Node,239,ROOM_6_FLR_3 ZNFCU OA NODE,Air,1
 Node,240,NODE 141,Air,2
 Node,241,NODE 63,Air,2
 Node,242,NODE 2,Air,0
 Node,243,NODE 113,Air,1
 Node,244,NODE 6,Air,0
 Node,245,NODE 68,Air,1
 Node,246,NODE 21,Air,0
 Node,247,NODE 98,Air,1
 Node,248,NODE 22,Air,0
 Node,249,NODE 108,Air,1
 Node,250,NODE 16,Air,0
 Node,251,NODE 123,Air,1
 Node,252,NODE 14,Air,0
 Node,253,NODE 118,Air,1
 Node,254,NODE 9,Air,0
 Node,255,NODE 128,Air,1
 Node,256,NODE 10,Air,0
 Node,257,NODE 93,Air,1
 Node,258,NODE 12,Air,0
 Node,259,NODE 103,Air,1
 Node,260,NODE 3,Air,0
 Node,261,NODE 83,Air,1
 Node,262,NODE 11,Air,0
 Node,263,NODE 73,Air,1
 Node,264,NODE 8,Air,0
 Node,265,NODE 78,Air,1
 Node,266,NODE 1,Air,0
 Node,267,NODE 150,Air,1
 Node,268,NODE 15,Air,0
 Node,269,NODE 198,Air,1
 Node,270,NODE 19,Air,0
 Node,271,NODE 158,Air,1
 Node,272,NODE 18,Air,0
 Node,273,NODE 206,Air,1
 Node,274,NODE 5,Air,0
 Node,275,NODE 166,Air,1
 Node,276,NODE 20,Air,0
 Node,277,NODE 214,Air,1
 Node,278,NODE 17,Air,0
 Node,279,NODE 174,Air,1
 Node,280,NODE 7,Air,0
 Node,281,NODE 182,Air,1
 Node,282,NODE 4,Air,0
 Node,283,NODE 190,Air,1
 Node,284,NODE 13,Air,0
 Node,285,NODE 88,Air,1
 Node,286,NODE 133,Air,2
 Node,287,NODE 55,Air,2
 Node,288,NODE 69,Air,1
 Node,289,NODE 74,Air,1
 Node,290,NODE 79,Air,1
 Node,291,NODE 84,Air,1
 Node,292,NODE 89,Air,1
 Node,293,NODE 94,Air,1
 Node,294,NODE 99,Air,1
 Node,295,NODE 104,Air,1
 Node,296,NODE 109,Air,1
 Node,297,NODE 114,Air,1
 Node,298,NODE 119,Air,1
 Node,299,NODE 124,Air,1
 Node,300,NODE 129,Air,1
 Node,301,BANQUET_FLR_6 ZN VAV TERM DAMPER OUTLET,Air,1
 Node,302,BASEMENT ZN VAV TERM DAMPER OUTLET,Air,1
 Node,303,CAFE_FLR_1 ZN VAV TERM DAMPER OUTLET,Air,1
 Node,304,CORRIDOR_FLR_3 ZN VAV TERM DAMPER OUTLET,Air,1
 Node,305,CORRIDOR_FLR_6 ZN VAV TERM DAMPER OUTLET,Air,1
 Node,306,DINING_FLR_6 ZN VAV TERM DAMPER OUTLET,Air,1
 Node,307,KITCHEN_FLR_6 ZN VAV TERM DAMPER OUTLET,Air,1
 Node,308,LAUNDRY_FLR_1 ZN VAV TERM DAMPER OUTLET,Air,1
 Node,309,LOBBY_FLR_1 ZN VAV TERM DAMPER OUTLET,Air,1
 Node,310,MECH_FLR_1 ZN VAV TERM DAMPER OUTLET,Air,1
 Node,311,RETAIL_1_FLR_1 ZN VAV TERM DAMPER OUTLET,Air,1
 Node,312,RETAIL_2_FLR_1 ZN VAV TERM DAMPER OUTLET,Air,1
 Node,313,ROOM_1_FLR_3 ZNFCU COOLING COIL OUTLET NODE,Air,1
 Node,314,ROOM_1_FLR_6 ZNFCU COOLING COIL OUTLET NODE,Air,1
 Node,315,ROOM_2_FLR_3 ZNFCU COOLING COIL OUTLET NODE,Air,1
 Node,316,ROOM_2_FLR_6 ZNFCU COOLING COIL OUTLET NODE,Air,1
 Node,317,ROOM_3_MULT19_FLR_3 ZNFCU COOLING COIL OUTLET NODE,Air,1
 Node,318,ROOM_3_MULT9_FLR_6 ZNFCU COOLING COIL OUTLET NODE,Air,1
 Node,319,ROOM_4_MULT19_FLR_3 ZNFCU COOLING COIL OUTLET NODE,Air,1
 Node,320,ROOM_5_FLR_3 ZNFCU COOLING COIL OUTLET NODE,Air,1
 Node,321,ROOM_6_FLR_3 ZNFCU COOLING COIL OUTLET NODE,Air,1
 Node,322,STORAGE_FLR_1 ZN VAV TERM DAMPER OUTLET,Air,1
 Node,323,ROOM_1_FLR_3 ZNFCU FAN OUTLET NODE,Air,1
 Node,324,ROOM_1_FLR_6 ZNFCU FAN OUTLET NODE,Air,1
 Node,325,ROOM_2_FLR_3 ZNFCU FAN OUTLET NODE,Air,1
 Node,326,ROOM_2_FLR_6 ZNFCU FAN OUTLET NODE,Air,1
 Node,327,ROOM_3_MULT19_FLR_3 ZNFCU FAN OUTLET NODE,Air,1
 Node,328,ROOM_3_MULT9_FLR_6 ZNFCU FAN OUTLET NODE,Air,1
 Node,329,ROOM_4_MULT19_FLR_3 ZNFCU FAN OUTLET NODE,Air,1
 Node,330,ROOM_5_FLR_3 ZNFCU FAN OUTLET NODE,Air,1
 Node,331,ROOM_6_FLR_3 ZNFCU FAN OUTLET NODE,Air,1
 Node,332,ROOM_1_FLR_3 ZNFCU MIXED AIR NODE,Air,1
 Node,333,ROOM_1_FLR_3 ZNFCU RELIEF AIR NODE,Air,0
 Node,334,ROOM_1_FLR_6 ZNFCU MIXED AIR NODE,Air,1
 Node,335,ROOM_1_FLR_6 ZNFCU RELIEF AIR NODE,Air,0
 Node,336,ROOM_2_FLR_3 ZNFCU MIXED AIR NODE,Air,1
 Node,337,ROOM_2_FLR_3 ZNFCU RELIEF AIR NODE,Air,0
 Node,338,ROOM_2_FLR_6 ZNFCU MIXED AIR NODE,Air,1
 Node,339,ROOM_2_FLR_6 ZNFCU RELIEF AIR NODE,Air,0
 Node,340,ROOM_3_MULT19_FLR_3 ZNFCU MIXED AIR NODE,Air,1
 Node,341,ROOM_3_MULT19_FLR_3 ZNFCU RELIEF AIR NODE,Air,0
 Node,342,ROOM_3_MULT9_FLR_6 ZNFCU MIXED AIR NODE,Air,1
 Node,343,ROOM_3_MULT9_FLR_6 ZNFCU RELIEF AIR NODE,Air,0
 Node,344,ROOM_4_MULT19_FLR_3 ZNFCU MIXED AIR NODE,Air,1
 Node,345,ROOM_4_MULT19_FLR_3 ZNFCU RELIEF AIR NODE,Air,0
 Node,346,ROOM_5_FLR_3 ZNFCU MIXED AIR NODE,Air,1
 Node,347,ROOM_5_FLR_3 ZNFCU RELIEF AIR NODE,Air,0
 Node,348,ROOM_6_FLR_3 ZNFCU MIXED AIR NODE,Air,1
 Node,349,ROOM_6_FLR_3 ZNFCU RELIEF AIR NODE,Air,0
 Node,350,NODE 142,Air,1
 Node,351,NODE 64,Air,1
 Node,352,90.1-2010 AIRCOOLED WITHCONDENSER  CHILLER 373TONS 1.3KW/TON INLET NODE FOR CONDENSER,Air,1
 Node,353,90.1-2010 AIRCOOLED WITHCONDENSER  CHILLER 373TONS 1.3KW/TON OUTLET NODE FOR CONDENSER,Air,0
! ===============================================================
! Suspicious nodes have 0 references.  It is normal for some nodes, however.
! Listing nodes with 0 references (culled from previous list):
! <Suspicious Node>,<NodeNumber>,<Node Name>,<Node Fluid Type>,<# Times Node Referenced After Definition>
 Suspicious Node,242,NODE 2,Air,0
 Suspicious Node,244,NODE 6,Air,0
 Suspicious Node,246,NODE 21,Air,0
 Suspicious Node,248,NODE 22,Air,0
 Suspicious Node,250,NODE 16,Air,0
 Suspicious Node,252,NODE 14,Air,0
 Suspicious Node,254,NODE 9,Air,0
 Suspicious Node,256,NODE 10,Air,0
 Suspicious Node,258,NODE 12,Air,0
 Suspicious Node,260,NODE 3,Air,0
 Suspicious Node,262,NODE 11,Air,0
 Suspicious Node,264,NODE 8,Air,0
 Suspicious Node,266,NODE 1,Air,0
 Suspicious Node,268,NODE 15,Air,0
 Suspicious Node,270,NODE 19,Air,0
 Suspicious Node,272,NODE 18,Air,0
 Suspicious Node,274,NODE 5,Air,0
 Suspicious Node,276,NODE 20,Air,0
 Suspicious Node,278,NODE 17,Air,0
 Suspicious Node,280,NODE 7,Air,0
 Suspicious Node,282,NODE 4,Air,0
 Suspicious Node,284,NODE 13,Air,0
 Suspicious Node,333,ROOM_1_FLR_3 ZNFCU RELIEF AIR NODE,Air,0
 Suspicious Node,335,ROOM_1_FLR_6 ZNFCU RELIEF AIR NODE,Air,0
 Suspicious Node,337,ROOM_2_FLR_3 ZNFCU RELIEF AIR NODE,Air,0
 Suspicious Node,339,ROOM_2_FLR_6 ZNFCU RELIEF AIR NODE,Air,0
 Suspicious Node,341,ROOM_3_MULT19_FLR_3 ZNFCU RELIEF AIR NODE,Air,0
 Suspicious Node,343,ROOM_3_MULT9_FLR_6 ZNFCU RELIEF AIR NODE,Air,0
 Suspicious Node,345,ROOM_4_MULT19_FLR_3 ZNFCU RELIEF AIR NODE,Air,0
 Suspicious Node,347,ROOM_5_FLR_3 ZNFCU RELIEF AIR NODE,Air,0
 Suspicious Node,349,ROOM_6_FLR_3 ZNFCU RELIEF AIR NODE,Air,0
 Suspicious Node,353,90.1-2010 AIRCOOLED WITHCONDENSER  CHILLER 373TONS 1.3KW/TON OUTLET NODE FOR CONDENSER,Air,0
! ===============================================================
! <#Branch Lists>,<Number of Branch Lists>
 #Branch Lists,12
! <Branch List>,<Branch List Count>,<Branch List Name>,<Loop Name>,<Loop Type>,<Number of Branches>
! <Branch>,<Branch Count>,<Branch Name>,<Loop Name>,<Loop Type>,<Branch Inlet Node Name>,<Branch Outlet Node Name>
 Branch List,1,DOAS AIR LOOP HVAC SUPPLY BRANCHES,DOAS AIR LOOP HVAC,Air,1
   Branch,1,DOAS AIR LOOP HVAC MAIN BRANCH,DOAS AIR LOOP HVAC,Air,NODE 130,NODE 131
 Branch List,2,VAV WITH REHEAT SUPPLY BRANCHES,VAV WITH REHEAT,Air,1
   Branch,1,VAV WITH REHEAT MAIN BRANCH,VAV WITH REHEAT,Air,NODE 52,NODE 53
 Branch List,3,CHILLED WATER LOOP SUPPLY BRANCHES,CHILLED WATER LOOP,Plant Supply,4
   Branch,1,CHILLED WATER LOOP SUPPLY INLET BRANCH,CHILLED WATER LOOP,Plant Supply,NODE 23,NODE 29
   Branch,2,CHILLED WATER LOOP SUPPLY BRANCH 1,CHILLED WATER LOOP,Plant Supply,NODE 25,NODE 31
   Branch,3,CHILLED WATER LOOP SUPPLY BRANCH 2,CHILLED WATER LOOP,Plant Supply,NODE 32,NODE 33
   Branch,4,CHILLED WATER LOOP SUPPLY OUTLET BRANCH,CHILLED WATER LOOP,Plant Supply,NODE 35,NODE 24
 Branch List,4,CHILLED WATER LOOP DEMAND BRANCHES,CHILLED WATER LOOP,Plant Demand,15
   Branch,1,CHILLED WATER LOOP DEMAND INLET BRANCH,CHILLED WATER LOOP,Plant Demand,NODE 26,NODE 30
   Branch,2,CHILLED WATER LOOP DEMAND BRANCH 1,CHILLED WATER LOOP,Plant Demand,NODE 28,NODE 34
   Branch,3,CHILLED WATER LOOP DEMAND BRANCH 2,CHILLED WATER LOOP,Plant Demand,NODE 61,NODE 62
   Branch,4,CHILLED WATER LOOP DEMAND BRANCH 3,CHILLED WATER LOOP,Plant Demand,NODE 138,NODE 139
   Branch,5,CHILLED WATER LOOP DEMAND BRANCH 4,CHILLED WATER LOOP,Plant Demand,NODE 144,NODE 145
   Branch,6,CHILLED WATER LOOP DEMAND BRANCH 5,CHILLED WATER LOOP,Plant Demand,NODE 151,NODE 152
   Branch,7,CHILLED WATER LOOP DEMAND BRANCH 6,CHILLED WATER LOOP,Plant Demand,NODE 159,NODE 160
   Branch,8,CHILLED WATER LOOP DEMAND BRANCH 7,CHILLED WATER LOOP,Plant Demand,NODE 167,NODE 168
   Branch,9,CHILLED WATER LOOP DEMAND BRANCH 8,CHILLED WATER LOOP,Plant Demand,NODE 175,NODE 176
   Branch,10,CHILLED WATER LOOP DEMAND BRANCH 9,CHILLED WATER LOOP,Plant Demand,NODE 183,NODE 184
   Branch,11,CHILLED WATER LOOP DEMAND BRANCH 10,CHILLED WATER LOOP,Plant Demand,NODE 191,NODE 192
   Branch,12,CHILLED WATER LOOP DEMAND BRANCH 11,CHILLED WATER LOOP,Plant Demand,NODE 199,NODE 200
   Branch,13,CHILLED WATER LOOP DEMAND BRANCH 12,CHILLED WATER LOOP,Plant Demand,NODE 207,NODE 208
   Branch,14,CHILLED WATER LOOP DEMAND BYPASS BRANCH,CHILLED WATER LOOP,Plant Demand,CHILLED WATER LOOP DEMAND BYPASS PIPE INLET NODE,CHILLED WATER LOOP DEMAND BYPASS PIPE OUTLET NODE
   Branch,15,CHILLED WATER LOOP DEMAND OUTLET BRANCH,CHILLED WATER LOOP,Plant Demand,NODE 37,NODE 27
 Branch List,5,HOT WATER LOOP SUPPLY BRANCHES,HOT WATER LOOP,Plant Supply,4
   Branch,1,HOT WATER LOOP SUPPLY INLET BRANCH,HOT WATER LOOP,Plant Supply,NODE 38,NODE 44
   Branch,2,HOT WATER LOOP SUPPLY BRANCH 1,HOT WATER LOOP,Plant Supply,NODE 40,NODE 45
   Branch,3,HOT WATER LOOP SUPPLY BRANCH 2,HOT WATER LOOP,Plant Supply,NODE 46,NODE 47
   Branch,4,HOT WATER LOOP SUPPLY OUTLET BRANCH,HOT WATER LOOP,Plant Supply,NODE 49,NODE 39
 Branch List,6,HOT WATER LOOP DEMAND BRANCHES,HOT WATER LOOP,Plant Demand,28
   Branch,1,HOT WATER LOOP DEMAND INLET BRANCH,HOT WATER LOOP,Plant Demand,NODE 41,NODE 50
   Branch,2,HOT WATER LOOP DEMAND BRANCH 1,HOT WATER LOOP,Plant Demand,NODE 43,NODE 48
   Branch,3,HOT WATER LOOP DEMAND BRANCH 2,HOT WATER LOOP,Plant Demand,NODE 58,NODE 59
   Branch,4,HOT WATER LOOP DEMAND BRANCH 3,HOT WATER LOOP,Plant Demand,NODE 66,NODE 67
   Branch,5,HOT WATER LOOP DEMAND BRANCH 4,HOT WATER LOOP,Plant Demand,NODE 70,NODE 71
   Branch,6,HOT WATER LOOP DEMAND BRANCH 5,HOT WATER LOOP,Plant Demand,NODE 75,NODE 76
   Branch,7,HOT WATER LOOP DEMAND BRANCH 6,HOT WATER LOOP,Plant Demand,NODE 80,NODE 81
   Branch,8,HOT WATER LOOP DEMAND BRANCH 7,HOT WATER LOOP,Plant Demand,NODE 85,NODE 86
   Branch,9,HOT WATER LOOP DEMAND BRANCH 8,HOT WATER LOOP,Plant Demand,NODE 90,NODE 91
   Branch,10,HOT WATER LOOP DEMAND BRANCH 9,HOT WATER LOOP,Plant Demand,NODE 95,NODE 96
   Branch,11,HOT WATER LOOP DEMAND BRANCH 10,HOT WATER LOOP,Plant Demand,NODE 100,NODE 101
   Branch,12,HOT WATER LOOP DEMAND BRANCH 11,HOT WATER LOOP,Plant Demand,NODE 105,NODE 106
   Branch,13,HOT WATER LOOP DEMAND BRANCH 12,HOT WATER LOOP,Plant Demand,NODE 110,NODE 111
   Branch,14,HOT WATER LOOP DEMAND BRANCH 13,HOT WATER LOOP,Plant Demand,NODE 115,NODE 116
   Branch,15,HOT WATER LOOP DEMAND BRANCH 14,HOT WATER LOOP,Plant Demand,NODE 120,NODE 121
   Branch,16,HOT WATER LOOP DEMAND BRANCH 15,HOT WATER LOOP,Plant Demand,NODE 125,NODE 126
   Branch,17,HOT WATER LOOP DEMAND BRANCH 16,HOT WATER LOOP,Plant Demand,NODE 135,NODE 136
   Branch,18,HOT WATER LOOP DEMAND BRANCH 17,HOT WATER LOOP,Plant Demand,NODE 146,NODE 147
   Branch,19,HOT WATER LOOP DEMAND BRANCH 18,HOT WATER LOOP,Plant Demand,NODE 153,NODE 154
   Branch,20,HOT WATER LOOP DEMAND BRANCH 19,HOT WATER LOOP,Plant Demand,NODE 161,NODE 162
   Branch,21,HOT WATER LOOP DEMAND BRANCH 20,HOT WATER LOOP,Plant Demand,NODE 169,NODE 170
   Branch,22,HOT WATER LOOP DEMAND BRANCH 21,HOT WATER LOOP,Plant Demand,NODE 177,NODE 178
   Branch,23,HOT WATER LOOP DEMAND BRANCH 22,HOT WATER LOOP,Plant Demand,NODE 185,NODE 186
   Branch,24,HOT WATER LOOP DEMAND BRANCH 23,HOT WATER LOOP,Plant Demand,NODE 193,NODE 194
   Branch,25,HOT WATER LOOP DEMAND BRANCH 24,HOT WATER LOOP,Plant Demand,NODE 201,NODE 202
   Branch,26,HOT WATER LOOP DEMAND BRANCH 25,HOT WATER LOOP,Plant Demand,NODE 209,NODE 210
   Branch,27,HOT WATER LOOP DEMAND BYPASS BRANCH,HOT WATER LOOP,Plant Demand,HOT WATER LOOP DEMAND BYPASS PIPE INLET NODE,HOT WATER LOOP DEMAND BYPASS PIPE OUTLET NODE
   Branch,28,HOT WATER LOOP DEMAND OUTLET BRANCH,HOT WATER LOOP,Plant Demand,NODE 51,NODE 42
 Branch List,7,LAUNDRY SERVICE WATER LOOP SUPPLY BRANCHES,LAUNDRY SERVICE WATER LOOP,Plant Supply,4
   Branch,1,LAUNDRY SERVICE WATER LOOP SUPPLY INLET BRANCH,LAUNDRY SERVICE WATER LOOP,Plant Supply,NODE 249,NODE 255
   Branch,2,LAUNDRY SERVICE WATER LOOP SUPPLY BRANCH 1,LAUNDRY SERVICE WATER LOOP,Plant Supply,NODE 251,NODE 256
   Branch,3,LAUNDRY SERVICE WATER LOOP SUPPLY BRANCH 2,LAUNDRY SERVICE WATER LOOP,Plant Supply,NODE 257,NODE 258
   Branch,4,LAUNDRY SERVICE WATER LOOP SUPPLY OUTLET BRANCH,LAUNDRY SERVICE WATER LOOP,Plant Supply,NODE 260,NODE 250
 Branch List,8,LAUNDRY SERVICE WATER LOOP DEMAND BRANCHES,LAUNDRY SERVICE WATER LOOP,Plant Demand,5
   Branch,1,LAUNDRY SERVICE WATER LOOP DEMAND INLET BRANCH,LAUNDRY SERVICE WATER LOOP,Plant Demand,NODE 252,NODE 261
   Branch,2,LAUNDRY SERVICE WATER LOOP DEMAND BRANCH 1,LAUNDRY SERVICE WATER LOOP,Plant Demand,NODE 254,NODE 259
   Branch,3,LAUNDRY SERVICE WATER LOOP DEMAND BRANCH 2,LAUNDRY SERVICE WATER LOOP,Plant Demand,NODE 263,NODE 264
   Branch,4,LAUNDRY SERVICE WATER LOOP DEMAND BYPASS BRANCH,LAUNDRY SERVICE WATER LOOP,Plant Demand,LAUNDRY SERVICE WATER LOOP DEMAND BYPASS PIPE INLET NODE,LAUNDRY SERVICE WATER LOOP DEMAND BYPASS PIPE OUTLET NODE
   Branch,5,LAUNDRY SERVICE WATER LOOP DEMAND OUTLET BRANCH,LAUNDRY SERVICE WATER LOOP,Plant Demand,NODE 262,NODE 253
 Branch List,9,MAIN SERVICE WATER LOOP SUPPLY BRANCHES,MAIN SERVICE WATER LOOP,Plant Supply,4
   Branch,1,MAIN SERVICE WATER LOOP SUPPLY INLET BRANCH,MAIN SERVICE WATER LOOP,Plant Supply,NODE 215,NODE 221
   Branch,2,MAIN SERVICE WATER LOOP SUPPLY BRANCH 1,MAIN SERVICE WATER LOOP,Plant Supply,NODE 217,NODE 222
   Branch,3,MAIN SERVICE WATER LOOP SUPPLY BRANCH 2,MAIN SERVICE WATER LOOP,Plant Supply,NODE 223,NODE 224
   Branch,4,MAIN SERVICE WATER LOOP SUPPLY OUTLET BRANCH,MAIN SERVICE WATER LOOP,Plant Supply,NODE 226,NODE 216
 Branch List,10,MAIN SERVICE WATER LOOP DEMAND BRANCHES,MAIN SERVICE WATER LOOP,Plant Demand,15
   Branch,1,MAIN SERVICE WATER LOOP DEMAND INLET BRANCH,MAIN SERVICE WATER LOOP,Plant Demand,NODE 218,NODE 227
   Branch,2,MAIN SERVICE WATER LOOP DEMAND BRANCH 1,MAIN SERVICE WATER LOOP,Plant Demand,NODE 220,NODE 225
   Branch,3,MAIN SERVICE WATER LOOP DEMAND BRANCH 2,MAIN SERVICE WATER LOOP,Plant Demand,NODE 229,NODE 230
   Branch,4,MAIN SERVICE WATER LOOP DEMAND BRANCH 3,MAIN SERVICE WATER LOOP,Plant Demand,NODE 231,NODE 232
   Branch,5,MAIN SERVICE WATER LOOP DEMAND BRANCH 4,MAIN SERVICE WATER LOOP,Plant Demand,NODE 233,NODE 234
   Branch,6,MAIN SERVICE WATER LOOP DEMAND BRANCH 5,MAIN SERVICE WATER LOOP,Plant Demand,NODE 235,NODE 236
   Branch,7,MAIN SERVICE WATER LOOP DEMAND BRANCH 6,MAIN SERVICE WATER LOOP,Plant Demand,NODE 237,NODE 238
   Branch,8,MAIN SERVICE WATER LOOP DEMAND BRANCH 7,MAIN SERVICE WATER LOOP,Plant Demand,NODE 239,NODE 240
   Branch,9,MAIN SERVICE WATER LOOP DEMAND BRANCH 8,MAIN SERVICE WATER LOOP,Plant Demand,NODE 241,NODE 242
   Branch,10,MAIN SERVICE WATER LOOP DEMAND BRANCH 9,MAIN SERVICE WATER LOOP,Plant Demand,NODE 243,NODE 244
   Branch,11,MAIN SERVICE WATER LOOP DEMAND BRANCH 10,MAIN SERVICE WATER LOOP,Plant Demand,NODE 245,NODE 246
   Branch,12,MAIN SERVICE WATER LOOP DEMAND BRANCH 11,MAIN SERVICE WATER LOOP,Plant Demand,NODE 247,NODE 248
   Branch,13,MAIN SERVICE WATER LOOP DEMAND BRANCH 12,MAIN SERVICE WATER LOOP,Plant Demand,NODE 280,NODE 281
   Branch,14,MAIN SERVICE WATER LOOP DEMAND BYPASS BRANCH,MAIN SERVICE WATER LOOP,Plant Demand,MAIN SERVICE WATER LOOP DEMAND BYPASS PIPE INLET NODE,MAIN SERVICE WATER LOOP DEMAND BYPASS PIPE OUTLET NODE
   Branch,15,MAIN SERVICE WATER LOOP DEMAND OUTLET BRANCH,MAIN SERVICE WATER LOOP,Plant Demand,NODE 228,NODE 219
 Branch List,11,SERVICE WATER LOOP SUPPLY BRANCHES,SERVICE WATER LOOP,Plant Supply,4
   Branch,1,SERVICE WATER LOOP SUPPLY INLET BRANCH,SERVICE WATER LOOP,Plant Supply,NODE 265,NODE 271
   Branch,2,SERVICE WATER LOOP SUPPLY BRANCH 1,SERVICE WATER LOOP,Plant Supply,NODE 267,NODE 272
   Branch,3,SERVICE WATER LOOP SUPPLY BRANCH 2,SERVICE WATER LOOP,Plant Supply,NODE 273,NODE 274
   Branch,4,SERVICE WATER LOOP SUPPLY OUTLET BRANCH,SERVICE WATER LOOP,Plant Supply,NODE 276,NODE 266
 Branch List,12,SERVICE WATER LOOP DEMAND BRANCHES,SERVICE WATER LOOP,Plant Demand,5
   Branch,1,SERVICE WATER LOOP DEMAND INLET BRANCH,SERVICE WATER LOOP,Plant Demand,NODE 268,NODE 277
   Branch,2,SERVICE WATER LOOP DEMAND BRANCH 1,SERVICE WATER LOOP,Plant Demand,NODE 270,NODE 275
   Branch,3,SERVICE WATER LOOP DEMAND BRANCH 2,SERVICE WATER LOOP,Plant Demand,NODE 282,NODE 283
   Branch,4,SERVICE WATER LOOP DEMAND BYPASS BRANCH,SERVICE WATER LOOP,Plant Demand,SERVICE WATER LOOP DEMAND BYPASS PIPE INLET NODE,SERVICE WATER LOOP DEMAND BYPASS PIPE OUTLET NODE
   Branch,5,SERVICE WATER LOOP DEMAND OUTLET BRANCH,SERVICE WATER LOOP,Plant Demand,NODE 278,NODE 269
! ===============================================================
! <#Supply Air Paths>,<Number of Supply Air Paths>
 #Supply Air Paths,2
! <Supply Air Path>,<Supply Air Path Count>,<Supply Air Path Name>,<AirLoopHVAC Name>
! <#Components on Supply Air Path>,<Number of Components>
! <Supply Air Path Component>,<Component Count>,<Component Type>,<Component Name>,<AirLoopHVAC Name>
! <#Outlet Nodes on Supply Air Path Component>,<Number of Nodes>
! <Supply Air Path Component Nodes>,<Node Count>,<Component Type>,<Component Name>,<Inlet Node Name>,<Outlet Node Name>,<AirLoopHVAC Name>
 Supply Air Path,1,DOAS AIR LOOP HVAC NODE 132 SUPPLY PATH,DOAS AIR LOOP HVAC
   #Components on Supply Air Path,1
   Supply Air Path Component,1,AIRLOOPHVAC:ZONESPLITTER,AIR LOOP HVAC ZONE SPLITTER 2,DOAS AIR LOOP HVAC
     #Outlet Nodes on Supply Air Path Component,9
     Supply Air Path Component Nodes,1,AIRLOOPHVAC:ZONESPLITTER,AIR LOOP HVAC ZONE SPLITTER 2,NODE 132,NODE 134,DOAS AIR LOOP HVAC
     Supply Air Path Component Nodes,2,AIRLOOPHVAC:ZONESPLITTER,AIR LOOP HVAC ZONE SPLITTER 2,NODE 132,NODE 157,DOAS AIR LOOP HVAC
     Supply Air Path Component Nodes,3,AIRLOOPHVAC:ZONESPLITTER,AIR LOOP HVAC ZONE SPLITTER 2,NODE 132,NODE 165,DOAS AIR LOOP HVAC
     Supply Air Path Component Nodes,4,AIRLOOPHVAC:ZONESPLITTER,AIR LOOP HVAC ZONE SPLITTER 2,NODE 132,NODE 173,DOAS AIR LOOP HVAC
     Supply Air Path Component Nodes,5,AIRLOOPHVAC:ZONESPLITTER,AIR LOOP HVAC ZONE SPLITTER 2,NODE 132,NODE 181,DOAS AIR LOOP HVAC
     Supply Air Path Component Nodes,6,AIRLOOPHVAC:ZONESPLITTER,AIR LOOP HVAC ZONE SPLITTER 2,NODE 132,NODE 189,DOAS AIR LOOP HVAC
     Supply Air Path Component Nodes,7,AIRLOOPHVAC:ZONESPLITTER,AIR LOOP HVAC ZONE SPLITTER 2,NODE 132,NODE 197,DOAS AIR LOOP HVAC
     Supply Air Path Component Nodes,8,AIRLOOPHVAC:ZONESPLITTER,AIR LOOP HVAC ZONE SPLITTER 2,NODE 132,NODE 205,DOAS AIR LOOP HVAC
     Supply Air Path Component Nodes,9,AIRLOOPHVAC:ZONESPLITTER,AIR LOOP HVAC ZONE SPLITTER 2,NODE 132,NODE 213,DOAS AIR LOOP HVAC
! <#Nodes on Supply Air Path>,<Number of Nodes>
! <Supply Air Path Node>,<Node Type>,<Node Count>,<Node Name>,<AirLoopHVAC Name>
#Nodes on Supply Air Path,10
   Supply Air Path Node,Inlet Node,1,NODE 132,DOAS AIR LOOP HVAC
   Supply Air Path Node,Outlet Node,2,NODE 134,DOAS AIR LOOP HVAC
   Supply Air Path Node,Outlet Node,3,NODE 157,DOAS AIR LOOP HVAC
   Supply Air Path Node,Outlet Node,4,NODE 165,DOAS AIR LOOP HVAC
   Supply Air Path Node,Outlet Node,5,NODE 173,DOAS AIR LOOP HVAC
   Supply Air Path Node,Outlet Node,6,NODE 181,DOAS AIR LOOP HVAC
   Supply Air Path Node,Outlet Node,7,NODE 189,DOAS AIR LOOP HVAC
   Supply Air Path Node,Outlet Node,8,NODE 197,DOAS AIR LOOP HVAC
   Supply Air Path Node,Outlet Node,9,NODE 205,DOAS AIR LOOP HVAC
   Supply Air Path Node,Outlet Node,10,NODE 213,DOAS AIR LOOP HVAC
 Supply Air Path,2,VAV WITH REHEAT NODE 54 SUPPLY PATH,VAV WITH REHEAT
   #Components on Supply Air Path,1
   Supply Air Path Component,1,AIRLOOPHVAC:ZONESPLITTER,AIR LOOP HVAC ZONE SPLITTER 1,VAV WITH REHEAT
     #Outlet Nodes on Supply Air Path Component,13
     Supply Air Path Component Nodes,1,AIRLOOPHVAC:ZONESPLITTER,AIR LOOP HVAC ZONE SPLITTER 1,NODE 54,NODE 69,VAV WITH REHEAT
     Supply Air Path Component Nodes,2,AIRLOOPHVAC:ZONESPLITTER,AIR LOOP HVAC ZONE SPLITTER 1,NODE 54,NODE 74,VAV WITH REHEAT
     Supply Air Path Component Nodes,3,AIRLOOPHVAC:ZONESPLITTER,AIR LOOP HVAC ZONE SPLITTER 1,NODE 54,NODE 79,VAV WITH REHEAT
     Supply Air Path Component Nodes,4,AIRLOOPHVAC:ZONESPLITTER,AIR LOOP HVAC ZONE SPLITTER 1,NODE 54,NODE 84,VAV WITH REHEAT
     Supply Air Path Component Nodes,5,AIRLOOPHVAC:ZONESPLITTER,AIR LOOP HVAC ZONE SPLITTER 1,NODE 54,NODE 89,VAV WITH REHEAT
     Supply Air Path Component Nodes,6,AIRLOOPHVAC:ZONESPLITTER,AIR LOOP HVAC ZONE SPLITTER 1,NODE 54,NODE 94,VAV WITH REHEAT
     Supply Air Path Component Nodes,7,AIRLOOPHVAC:ZONESPLITTER,AIR LOOP HVAC ZONE SPLITTER 1,NODE 54,NODE 99,VAV WITH REHEAT
     Supply Air Path Component Nodes,8,AIRLOOPHVAC:ZONESPLITTER,AIR LOOP HVAC ZONE SPLITTER 1,NODE 54,NODE 104,VAV WITH REHEAT
     Supply Air Path Component Nodes,9,AIRLOOPHVAC:ZONESPLITTER,AIR LOOP HVAC ZONE SPLITTER 1,NODE 54,NODE 109,VAV WITH REHEAT
     Supply Air Path Component Nodes,10,AIRLOOPHVAC:ZONESPLITTER,AIR LOOP HVAC ZONE SPLITTER 1,NODE 54,NODE 114,VAV WITH REHEAT
     Supply Air Path Component Nodes,11,AIRLOOPHVAC:ZONESPLITTER,AIR LOOP HVAC ZONE SPLITTER 1,NODE 54,NODE 119,VAV WITH REHEAT
     Supply Air Path Component Nodes,12,AIRLOOPHVAC:ZONESPLITTER,AIR LOOP HVAC ZONE SPLITTER 1,NODE 54,NODE 124,VAV WITH REHEAT
     Supply Air Path Component Nodes,13,AIRLOOPHVAC:ZONESPLITTER,AIR LOOP HVAC ZONE SPLITTER 1,NODE 54,NODE 129,VAV WITH REHEAT
! <#Nodes on Supply Air Path>,<Number of Nodes>
! <Supply Air Path Node>,<Node Type>,<Node Count>,<Node Name>,<AirLoopHVAC Name>
#Nodes on Supply Air Path,14
   Supply Air Path Node,Inlet Node,1,NODE 54,VAV WITH REHEAT
   Supply Air Path Node,Outlet Node,2,NODE 69,VAV WITH REHEAT
   Supply Air Path Node,Outlet Node,3,NODE 74,VAV WITH REHEAT
   Supply Air Path Node,Outlet Node,4,NODE 79,VAV WITH REHEAT
   Supply Air Path Node,Outlet Node,5,NODE 84,VAV WITH REHEAT
   Supply Air Path Node,Outlet Node,6,NODE 89,VAV WITH REHEAT
   Supply Air Path Node,Outlet Node,7,NODE 94,VAV WITH REHEAT
   Supply Air Path Node,Outlet Node,8,NODE 99,VAV WITH REHEAT
   Supply Air Path Node,Outlet Node,9,NODE 104,VAV WITH REHEAT
   Supply Air Path Node,Outlet Node,10,NODE 109,VAV WITH REHEAT
   Supply Air Path Node,Outlet Node,11,NODE 114,VAV WITH REHEAT
   Supply Air Path Node,Outlet Node,12,NODE 119,VAV WITH REHEAT
   Supply Air Path Node,Outlet Node,13,NODE 124,VAV WITH REHEAT
   Supply Air Path Node,Outlet Node,14,NODE 129,VAV WITH REHEAT
! ===============================================================
! <#Return Air Paths>,<Number of Return Air Paths>
 #Return Air Paths,2
! <Return Air Path>,<Return Air Path Count>,<Return Air Path Name>,<AirLoopHVAC Name>
! <#Components on Return Air Path>,<Number of Components>
! <Return Air Path Component>,<Component Count>,<Component Type>,<Component Name>,<AirLoopHVAC Name>
! <#Inlet Nodes on Return Air Path Component>,<Number of Nodes>
! <Return Air Path Component Nodes>,<Node Count>,<Component Type>,<Component Name>,<Inlet Node Name>,<Outlet Node Name>,<AirLoopHVAC Name>
 Return Air Path,1,DOAS AIR LOOP HVAC RETURN PATH,DOAS AIR LOOP HVAC
   #Components on Return Air Path,1
   Return Air Path Component,1,AIRLOOPHVAC:ZONEMIXER,AIR LOOP HVAC ZONE MIXER 2,DOAS AIR LOOP HVAC
     #Inlet Nodes on Return Air Path Component,9
     Return Air Path Component Nodes,1,AIRLOOPHVAC:ZONEMIXER,AIR LOOP HVAC ZONE MIXER 2,NODE 150,NODE 133,DOAS AIR LOOP HVAC
     Return Air Path Component Nodes,2,AIRLOOPHVAC:ZONEMIXER,AIR LOOP HVAC ZONE MIXER 2,NODE 158,NODE 133,DOAS AIR LOOP HVAC
     Return Air Path Component Nodes,3,AIRLOOPHVAC:ZONEMIXER,AIR LOOP HVAC ZONE MIXER 2,NODE 166,NODE 133,DOAS AIR LOOP HVAC
     Return Air Path Component Nodes,4,AIRLOOPHVAC:ZONEMIXER,AIR LOOP HVAC ZONE MIXER 2,NODE 174,NODE 133,DOAS AIR LOOP HVAC
     Return Air Path Component Nodes,5,AIRLOOPHVAC:ZONEMIXER,AIR LOOP HVAC ZONE MIXER 2,NODE 182,NODE 133,DOAS AIR LOOP HVAC
     Return Air Path Component Nodes,6,AIRLOOPHVAC:ZONEMIXER,AIR LOOP HVAC ZONE MIXER 2,NODE 190,NODE 133,DOAS AIR LOOP HVAC
     Return Air Path Component Nodes,7,AIRLOOPHVAC:ZONEMIXER,AIR LOOP HVAC ZONE MIXER 2,NODE 198,NODE 133,DOAS AIR LOOP HVAC
     Return Air Path Component Nodes,8,AIRLOOPHVAC:ZONEMIXER,AIR LOOP HVAC ZONE MIXER 2,NODE 206,NODE 133,DOAS AIR LOOP HVAC
     Return Air Path Component Nodes,9,AIRLOOPHVAC:ZONEMIXER,AIR LOOP HVAC ZONE MIXER 2,NODE 214,NODE 133,DOAS AIR LOOP HVAC
! <#Nodes on Return Air Path>,<Number of Nodes>
! <Return Air Path Node>,<Node Type>,<Node Count>,<Node Name>,<AirLoopHVAC Name>
   #Nodes on Return Air Path,10
   Return Air Path Node,Outlet Node,1,NODE 133,DOAS AIR LOOP HVAC
   Return Air Path Node,Inlet Node,2,NODE 150,DOAS AIR LOOP HVAC
   Return Air Path Node,Inlet Node,3,NODE 158,DOAS AIR LOOP HVAC
   Return Air Path Node,Inlet Node,4,NODE 166,DOAS AIR LOOP HVAC
   Return Air Path Node,Inlet Node,5,NODE 174,DOAS AIR LOOP HVAC
   Return Air Path Node,Inlet Node,6,NODE 182,DOAS AIR LOOP HVAC
   Return Air Path Node,Inlet Node,7,NODE 190,DOAS AIR LOOP HVAC
   Return Air Path Node,Inlet Node,8,NODE 198,DOAS AIR LOOP HVAC
   Return Air Path Node,Inlet Node,9,NODE 206,DOAS AIR LOOP HVAC
   Return Air Path Node,Inlet Node,10,NODE 214,DOAS AIR LOOP HVAC
 Return Air Path,2,VAV WITH REHEAT RETURN PATH,VAV WITH REHEAT
   #Components on Return Air Path,1
   Return Air Path Component,1,AIRLOOPHVAC:ZONEMIXER,AIR LOOP HVAC ZONE MIXER 1,VAV WITH REHEAT
     #Inlet Nodes on Return Air Path Component,13
     Return Air Path Component Nodes,1,AIRLOOPHVAC:ZONEMIXER,AIR LOOP HVAC ZONE MIXER 1,NODE 68,NODE 55,VAV WITH REHEAT
     Return Air Path Component Nodes,2,AIRLOOPHVAC:ZONEMIXER,AIR LOOP HVAC ZONE MIXER 1,NODE 73,NODE 55,VAV WITH REHEAT
     Return Air Path Component Nodes,3,AIRLOOPHVAC:ZONEMIXER,AIR LOOP HVAC ZONE MIXER 1,NODE 78,NODE 55,VAV WITH REHEAT
     Return Air Path Component Nodes,4,AIRLOOPHVAC:ZONEMIXER,AIR LOOP HVAC ZONE MIXER 1,NODE 83,NODE 55,VAV WITH REHEAT
     Return Air Path Component Nodes,5,AIRLOOPHVAC:ZONEMIXER,AIR LOOP HVAC ZONE MIXER 1,NODE 88,NODE 55,VAV WITH REHEAT
     Return Air Path Component Nodes,6,AIRLOOPHVAC:ZONEMIXER,AIR LOOP HVAC ZONE MIXER 1,NODE 93,NODE 55,VAV WITH REHEAT
     Return Air Path Component Nodes,7,AIRLOOPHVAC:ZONEMIXER,AIR LOOP HVAC ZONE MIXER 1,NODE 98,NODE 55,VAV WITH REHEAT
     Return Air Path Component Nodes,8,AIRLOOPHVAC:ZONEMIXER,AIR LOOP HVAC ZONE MIXER 1,NODE 103,NODE 55,VAV WITH REHEAT
     Return Air Path Component Nodes,9,AIRLOOPHVAC:ZONEMIXER,AIR LOOP HVAC ZONE MIXER 1,NODE 108,NODE 55,VAV WITH REHEAT
     Return Air Path Component Nodes,10,AIRLOOPHVAC:ZONEMIXER,AIR LOOP HVAC ZONE MIXER 1,NODE 113,NODE 55,VAV WITH REHEAT
     Return Air Path Component Nodes,11,AIRLOOPHVAC:ZONEMIXER,AIR LOOP HVAC ZONE MIXER 1,NODE 118,NODE 55,VAV WITH REHEAT
     Return Air Path Component Nodes,12,AIRLOOPHVAC:ZONEMIXER,AIR LOOP HVAC ZONE MIXER 1,NODE 123,NODE 55,VAV WITH REHEAT
     Return Air Path Component Nodes,13,AIRLOOPHVAC:ZONEMIXER,AIR LOOP HVAC ZONE MIXER 1,NODE 128,NODE 55,VAV WITH REHEAT
! <#Nodes on Return Air Path>,<Number of Nodes>
! <Return Air Path Node>,<Node Type>,<Node Count>,<Node Name>,<AirLoopHVAC Name>
   #Nodes on Return Air Path,14
   Return Air Path Node,Outlet Node,1,NODE 55,VAV WITH REHEAT
   Return Air Path Node,Inlet Node,2,NODE 68,VAV WITH REHEAT
   Return Air Path Node,Inlet Node,3,NODE 73,VAV WITH REHEAT
   Return Air Path Node,Inlet Node,4,NODE 78,VAV WITH REHEAT
   Return Air Path Node,Inlet Node,5,NODE 83,VAV WITH REHEAT
   Return Air Path Node,Inlet Node,6,NODE 88,VAV WITH REHEAT
   Return Air Path Node,Inlet Node,7,NODE 93,VAV WITH REHEAT
   Return Air Path Node,Inlet Node,8,NODE 98,VAV WITH REHEAT
   Return Air Path Node,Inlet Node,9,NODE 103,VAV WITH REHEAT
   Return Air Path Node,Inlet Node,10,NODE 108,VAV WITH REHEAT
   Return Air Path Node,Inlet Node,11,NODE 113,VAV WITH REHEAT
   Return Air Path Node,Inlet Node,12,NODE 118,VAV WITH REHEAT
   Return Air Path Node,Inlet Node,13,NODE 123,VAV WITH REHEAT
   Return Air Path Node,Inlet Node,14,NODE 128,VAV WITH REHEAT
! ===============================================================
! #Outdoor Air Nodes,<Number of Outdoor Air Nodes>
 #Outdoor Air Nodes,12
! <Outdoor Air Node>,<NodeNumber>,<Node Name>
 Outdoor Air Node,231,ROOM_1_FLR_3 ZNFCU OA NODE
 Outdoor Air Node,232,ROOM_1_FLR_6 ZNFCU OA NODE
 Outdoor Air Node,233,ROOM_2_FLR_3 ZNFCU OA NODE
 Outdoor Air Node,234,ROOM_2_FLR_6 ZNFCU OA NODE
 Outdoor Air Node,235,ROOM_3_MULT19_FLR_3 ZNFCU OA NODE
 Outdoor Air Node,236,ROOM_3_MULT9_FLR_6 ZNFCU OA NODE
 Outdoor Air Node,237,ROOM_4_MULT19_FLR_3 ZNFCU OA NODE
 Outdoor Air Node,238,ROOM_5_FLR_3 ZNFCU OA NODE
 Outdoor Air Node,239,ROOM_6_FLR_3 ZNFCU OA NODE
 Outdoor Air Node,240,NODE 141
 Outdoor Air Node,241,NODE 63
 Outdoor Air Node,352,90.1-2010 AIRCOOLED WITHCONDENSER  CHILLER 373TONS 1.3KW/TON INLET NODE FOR CONDENSER
! ===============================================================
! <#Component Sets>,<Number of Component Sets>
 #Component Sets,162
! <Component Set>,<Component Set Count>,<Parent Object Type>,<Parent Object Name>,<Component Type>,<Component Name>,<Inlet Node ID>,<Outlet Node ID>,<Description>
 Component Set,1,BRANCH,DOAS AIR LOOP HVAC MAIN BRANCH,AIRLOOPHVAC:OUTDOORAIRSYSTEM,AIR LOOP HVAC OUTDOOR AIR SYSTEM 1,NODE 130,NODE 143,Air Nodes
 Component Set,2,BRANCH,DOAS AIR LOOP HVAC MAIN BRANCH,COIL:COOLING:WATER,COIL COOLING WATER 1,NODE 143,NODE 140,Air Nodes
 Component Set,3,BRANCH,DOAS AIR LOOP HVAC MAIN BRANCH,COIL:HEATING:WATER,COIL HEATING WATER 1,NODE 140,NODE 137,Air Nodes
 Component Set,4,BRANCH,DOAS AIR LOOP HVAC MAIN BRANCH,FAN:CONSTANTVOLUME,DOAS FAN,NODE 137,NODE 131,Air Nodes
 Component Set,5,BRANCH,VAV WITH REHEAT MAIN BRANCH,AIRLOOPHVAC:OUTDOORAIRSYSTEM,VAV WITH REHEAT OA SYS,NODE 52,NODE 65,Air Nodes
 Component Set,6,BRANCH,VAV WITH REHEAT MAIN BRANCH,COIL:COOLING:WATER,VAV WITH REHEAT CLG COIL,NODE 65,NODE 60,Air Nodes
 Component Set,7,BRANCH,VAV WITH REHEAT MAIN BRANCH,COIL:HEATING:WATER,VAV WITH REHEAT MAIN HTG COIL,NODE 60,NODE 57,Air Nodes
 Component Set,8,BRANCH,VAV WITH REHEAT MAIN BRANCH,FAN:VARIABLEVOLUME,VAV WITH REHEAT FAN,NODE 57,NODE 53,Air Nodes
 Component Set,9,BRANCH,CHILLED WATER LOOP SUPPLY INLET BRANCH,PUMP:CONSTANTSPEED,CHILLED WATER LOOP PRIMARY PUMP,NODE 23,NODE 29,Water Nodes
 Component Set,10,BRANCH,CHILLED WATER LOOP SUPPLY BRANCH 1,CHILLER:ELECTRIC:EIR,90.1-2010 AIRCOOLED WITHCONDENSER  CHILLER 373TONS 1.3KW/TON,NODE 25,NODE 31,Chilled Water Nodes
 Component Set,11,BRANCH,CHILLED WATER LOOP SUPPLY BRANCH 2,PIPE:ADIABATIC,PIPE ADIABATIC 1,NODE 32,NODE 33,Pipe Nodes
 Component Set,12,BRANCH,CHILLED WATER LOOP SUPPLY OUTLET BRANCH,PIPE:ADIABATIC,PIPE ADIABATIC 3,NODE 35,NODE 24,Pipe Nodes
 Component Set,13,BRANCH,CHILLED WATER LOOP DEMAND INLET BRANCH,PIPE:ADIABATIC,PIPE ADIABATIC 4,NODE 26,NODE 36,Pipe Nodes
 Component Set,14,BRANCH,CHILLED WATER LOOP DEMAND INLET BRANCH,PUMP:VARIABLESPEED,CHILLED WATER LOOP SECONDARY PUMP,NODE 36,NODE 30,Water Nodes
 Component Set,15,BRANCH,CHILLED WATER LOOP DEMAND BRANCH 1,PIPE:ADIABATIC,PIPE ADIABATIC 2,NODE 28,NODE 34,Pipe Nodes
 Component Set,16,BRANCH,CHILLED WATER LOOP DEMAND BRANCH 2,COIL:COOLING:WATER,VAV WITH REHEAT CLG COIL,NODE 61,NODE 62,Water Nodes
 Component Set,17,BRANCH,CHILLED WATER LOOP DEMAND BRANCH 3,COIL:COOLING:WATER,COIL COOLING WATER 1,NODE 138,NODE 139,Water Nodes
 Component Set,18,BRANCH,CHILLED WATER LOOP DEMAND BRANCH 4,COIL:COOLING:WATER,ROOM_1_FLR_3 ZNFCU COOLING COIL,NODE 144,NODE 145,Water Nodes
 Component Set,19,BRANCH,CHILLED WATER LOOP DEMAND BRANCH 5,COIL:COOLING:WATER,ROOM_2_FLR_3 ZNFCU COOLING COIL,NODE 151,NODE 152,Water Nodes
 Component Set,20,BRANCH,CHILLED WATER LOOP DEMAND BRANCH 6,COIL:COOLING:WATER,ROOM_3_MULT19_FLR_3 ZNFCU COOLING COIL,NODE 159,NODE 160,Water Nodes
 Component Set,21,BRANCH,CHILLED WATER LOOP DEMAND BRANCH 7,COIL:COOLING:WATER,ROOM_4_MULT19_FLR_3 ZNFCU COOLING COIL,NODE 167,NODE 168,Water Nodes
 Component Set,22,BRANCH,CHILLED WATER LOOP DEMAND BRANCH 8,COIL:COOLING:WATER,ROOM_5_FLR_3 ZNFCU COOLING COIL,NODE 175,NODE 176,Water Nodes
 Component Set,23,BRANCH,CHILLED WATER LOOP DEMAND BRANCH 9,COIL:COOLING:WATER,ROOM_6_FLR_3 ZNFCU COOLING COIL,NODE 183,NODE 184,Water Nodes
 Component Set,24,BRANCH,CHILLED WATER LOOP DEMAND BRANCH 10,COIL:COOLING:WATER,ROOM_1_FLR_6 ZNFCU COOLING COIL,NODE 191,NODE 192,Water Nodes
 Component Set,25,BRANCH,CHILLED WATER LOOP DEMAND BRANCH 11,COIL:COOLING:WATER,ROOM_2_FLR_6 ZNFCU COOLING COIL,NODE 199,NODE 200,Water Nodes
 Component Set,26,BRANCH,CHILLED WATER LOOP DEMAND BRANCH 12,COIL:COOLING:WATER,ROOM_3_MULT9_FLR_6 ZNFCU COOLING COIL,NODE 207,NODE 208,Water Nodes
 Component Set,27,BRANCH,CHILLED WATER LOOP DEMAND BYPASS BRANCH,PIPE:ADIABATIC,CHILLED WATER LOOP DEMAND BYPASS PIPE,CHILLED WATER LOOP DEMAND BYPASS PIPE INLET NODE,CHILLED WATER LOOP DEMAND BYPASS PIPE OUTLET NODE,Pipe Nodes
 Component Set,28,BRANCH,CHILLED WATER LOOP DEMAND OUTLET BRANCH,PIPE:ADIABATIC,PIPE ADIABATIC 5,NODE 37,NODE 27,Pipe Nodes
 Component Set,29,BRANCH,HOT WATER LOOP SUPPLY INLET BRANCH,PUMP:VARIABLESPEED,HOT WATER LOOP PUMP,NODE 38,NODE 44,Water Nodes
 Component Set,30,BRANCH,HOT WATER LOOP SUPPLY BRANCH 1,BOILER:HOTWATER,HOT WATER LOOP BOILER 2257KBTU/HR 0.8 THERMAL EFF,NODE 40,NODE 45,Hot Water Nodes
 Component Set,31,BRANCH,HOT WATER LOOP SUPPLY BRANCH 2,PIPE:ADIABATIC,PIPE ADIABATIC 6,NODE 46,NODE 47,Pipe Nodes
 Component Set,32,BRANCH,HOT WATER LOOP SUPPLY OUTLET BRANCH,PIPE:ADIABATIC,PIPE ADIABATIC 8,NODE 49,NODE 39,Pipe Nodes
 Component Set,33,BRANCH,HOT WATER LOOP DEMAND INLET BRANCH,PIPE:ADIABATIC,PIPE ADIABATIC 9,NODE 41,NODE 50,Pipe Nodes
 Component Set,34,BRANCH,HOT WATER LOOP DEMAND BRANCH 1,PIPE:ADIABATIC,PIPE ADIABATIC 7,NODE 43,NODE 48,Pipe Nodes
 Component Set,35,BRANCH,HOT WATER LOOP DEMAND BRANCH 2,COIL:HEATING:WATER,VAV WITH REHEAT MAIN HTG COIL,NODE 58,NODE 59,Water Nodes
 Component Set,36,BRANCH,HOT WATER LOOP DEMAND BRANCH 3,COIL:HEATING:WATER,BASEMENT ZN RHT COIL,NODE 66,NODE 67,Water Nodes
 Component Set,37,BRANCH,HOT WATER LOOP DEMAND BRANCH 4,COIL:HEATING:WATER,RETAIL_1_FLR_1 ZN RHT COIL,NODE 70,NODE 71,Water Nodes
 Component Set,38,BRANCH,HOT WATER LOOP DEMAND BRANCH 5,COIL:HEATING:WATER,RETAIL_2_FLR_1 ZN RHT COIL,NODE 75,NODE 76,Water Nodes
 Component Set,39,BRANCH,HOT WATER LOOP DEMAND BRANCH 6,COIL:HEATING:WATER,MECH_FLR_1 ZN RHT COIL,NODE 80,NODE 81,Water Nodes
 Component Set,40,BRANCH,HOT WATER LOOP DEMAND BRANCH 7,COIL:HEATING:WATER,STORAGE_FLR_1 ZN RHT COIL,NODE 85,NODE 86,Water Nodes
 Component Set,41,BRANCH,HOT WATER LOOP DEMAND BRANCH 8,COIL:HEATING:WATER,LAUNDRY_FLR_1 ZN RHT COIL,NODE 90,NODE 91,Water Nodes
 Component Set,42,BRANCH,HOT WATER LOOP DEMAND BRANCH 9,COIL:HEATING:WATER,CAFE_FLR_1 ZN RHT COIL,NODE 95,NODE 96,Water Nodes
 Component Set,43,BRANCH,HOT WATER LOOP DEMAND BRANCH 10,COIL:HEATING:WATER,LOBBY_FLR_1 ZN RHT COIL,NODE 100,NODE 101,Water Nodes
 Component Set,44,BRANCH,HOT WATER LOOP DEMAND BRANCH 11,COIL:HEATING:WATER,CORRIDOR_FLR_3 ZN RHT COIL,NODE 105,NODE 106,Water Nodes
 Component Set,45,BRANCH,HOT WATER LOOP DEMAND BRANCH 12,COIL:HEATING:WATER,BANQUET_FLR_6 ZN RHT COIL,NODE 110,NODE 111,Water Nodes
 Component Set,46,BRANCH,HOT WATER LOOP DEMAND BRANCH 13,COIL:HEATING:WATER,DINING_FLR_6 ZN RHT COIL,NODE 115,NODE 116,Water Nodes
 Component Set,47,BRANCH,HOT WATER LOOP DEMAND BRANCH 14,COIL:HEATING:WATER,CORRIDOR_FLR_6 ZN RHT COIL,NODE 120,NODE 121,Water Nodes
 Component Set,48,BRANCH,HOT WATER LOOP DEMAND BRANCH 15,COIL:HEATING:WATER,KITCHEN_FLR_6 ZN RHT COIL,NODE 125,NODE 126,Water Nodes
 Component Set,49,BRANCH,HOT WATER LOOP DEMAND BRANCH 16,COIL:HEATING:WATER,COIL HEATING WATER 1,NODE 135,NODE 136,Water Nodes
 Component Set,50,BRANCH,HOT WATER LOOP DEMAND BRANCH 17,COIL:HEATING:WATER,ROOM_1_FLR_3 ZNFCU HEATING COIL,NODE 146,NODE 147,Water Nodes
 Component Set,51,BRANCH,HOT WATER LOOP DEMAND BRANCH 18,COIL:HEATING:WATER,ROOM_2_FLR_3 ZNFCU HEATING COIL,NODE 153,NODE 154,Water Nodes
 Component Set,52,BRANCH,HOT WATER LOOP DEMAND BRANCH 19,COIL:HEATING:WATER,ROOM_3_MULT19_FLR_3 ZNFCU HEATING COIL,NODE 161,NODE 162,Water Nodes
 Component Set,53,BRANCH,HOT WATER LOOP DEMAND BRANCH 20,COIL:HEATING:WATER,ROOM_4_MULT19_FLR_3 ZNFCU HEATING COIL,NODE 169,NODE 170,Water Nodes
 Component Set,54,BRANCH,HOT WATER LOOP DEMAND BRANCH 21,COIL:HEATING:WATER,ROOM_5_FLR_3 ZNFCU HEATING COIL,NODE 177,NODE 178,Water Nodes
 Component Set,55,BRANCH,HOT WATER LOOP DEMAND BRANCH 22,COIL:HEATING:WATER,ROOM_6_FLR_3 ZNFCU HEATING COIL,NODE 185,NODE 186,Water Nodes
 Component Set,56,BRANCH,HOT WATER LOOP DEMAND BRANCH 23,COIL:HEATING:WATER,ROOM_1_FLR_6 ZNFCU HEATING COIL,NODE 193,NODE 194,Water Nodes
 Component Set,57,BRANCH,HOT WATER LOOP DEMAND BRANCH 24,COIL:HEATING:WATER,ROOM_2_FLR_6 ZNFCU HEATING COIL,NODE 201,NODE 202,Water Nodes
 Component Set,58,BRANCH,HOT WATER LOOP DEMAND BRANCH 25,COIL:HEATING:WATER,ROOM_3_MULT9_FLR_6 ZNFCU HEATING COIL,NODE 209,NODE 210,Water Nodes
 Component Set,59,BRANCH,HOT WATER LOOP DEMAND BYPASS BRANCH,PIPE:ADIABATIC,HOT WATER LOOP DEMAND BYPASS PIPE,HOT WATER LOOP DEMAND BYPASS PIPE INLET NODE,HOT WATER LOOP DEMAND BYPASS PIPE OUTLET NODE,Pipe Nodes
 Component Set,60,BRANCH,HOT WATER LOOP DEMAND OUTLET BRANCH,PIPE:ADIABATIC,PIPE ADIABATIC 10,NODE 51,NODE 42,Pipe Nodes
 Component Set,61,BRANCH,LAUNDRY SERVICE WATER LOOP SUPPLY INLET BRANCH,PUMP:CONSTANTSPEED,SERVICE WATER LOOP PUMP 1,NODE 249,NODE 255,Water Nodes
 Component Set,62,BRANCH,LAUNDRY SERVICE WATER LOOP SUPPLY BRANCH 1,WATERHEATER:MIXED,300.0GAL NATURAL GAS WATER HEATER - 300KBTU/HR 0.805EFF,NODE 251,NODE 256,Use Side Water Nodes
 Component Set,63,BRANCH,LAUNDRY SERVICE WATER LOOP SUPPLY BRANCH 2,PIPE:ADIABATIC,PIPE ADIABATIC 16,NODE 257,NODE 258,Pipe Nodes
 Component Set,64,BRANCH,LAUNDRY SERVICE WATER LOOP SUPPLY OUTLET BRANCH,PIPE:ADIABATIC,PIPE ADIABATIC 18,NODE 260,NODE 250,Pipe Nodes
 Component Set,65,BRANCH,LAUNDRY SERVICE WATER LOOP DEMAND INLET BRANCH,PIPE:ADIABATIC,PIPE ADIABATIC 19,NODE 252,NODE 261,Pipe Nodes
 Component Set,66,BRANCH,LAUNDRY SERVICE WATER LOOP DEMAND BRANCH 1,PIPE:ADIABATIC,PIPE ADIABATIC 17,NODE 254,NODE 259,Pipe Nodes
 Component Set,67,BRANCH,LAUNDRY SERVICE WATER LOOP DEMAND BRANCH 2,WATERUSE:CONNECTIONS,WATER USE CONNECTIONS 1,NODE 263,NODE 264,DHW Nodes
 Component Set,68,BRANCH,LAUNDRY SERVICE WATER LOOP DEMAND BYPASS BRANCH,PIPE:ADIABATIC,LAUNDRY SERVICE WATER LOOP DEMAND BYPASS PIPE,LAUNDRY SERVICE WATER LOOP DEMAND BYPASS PIPE INLET NODE,LAUNDRY SERVICE WATER LOOP DEMAND BYPASS PIPE OUTLET NODE,Pipe Nodes
 Component Set,69,BRANCH,LAUNDRY SERVICE WATER LOOP DEMAND OUTLET BRANCH,PIPE:ADIABATIC,PIPE ADIABATIC 20,NODE 262,NODE 253,Pipe Nodes
 Component Set,70,BRANCH,MAIN SERVICE WATER LOOP SUPPLY INLET BRANCH,PUMP:CONSTANTSPEED,SERVICE WATER LOOP PUMP,NODE 215,NODE 221,Water Nodes
 Component Set,71,BRANCH,MAIN SERVICE WATER LOOP SUPPLY BRANCH 1,WATERHEATER:MIXED,600.0GAL NATURAL GAS WATER HEATER - 600KBTU/HR 0.804EFF,NODE 217,NODE 222,Use Side Water Nodes
 Component Set,72,BRANCH,MAIN SERVICE WATER LOOP SUPPLY BRANCH 2,PIPE:ADIABATIC,PIPE ADIABATIC 11,NODE 223,NODE 224,Pipe Nodes
 Component Set,73,BRANCH,MAIN SERVICE WATER LOOP SUPPLY OUTLET BRANCH,PIPE:ADIABATIC,PIPE ADIABATIC 13,NODE 226,NODE 216,Pipe Nodes
 Component Set,74,BRANCH,MAIN SERVICE WATER LOOP DEMAND INLET BRANCH,PIPE:ADIABATIC,PIPE ADIABATIC 14,NODE 218,NODE 227,Pipe Nodes
 Component Set,75,BRANCH,MAIN SERVICE WATER LOOP DEMAND BRANCH 1,PIPE:ADIABATIC,PIPE ADIABATIC 12,NODE 220,NODE 225,Pipe Nodes
 Component Set,76,BRANCH,MAIN SERVICE WATER LOOP DEMAND BRANCH 2,WATERUSE:CONNECTIONS,ROOM_1_FLR_3WATER USE CONNECTIONS,NODE 229,NODE 230,DHW Nodes
 Component Set,77,BRANCH,MAIN SERVICE WATER LOOP DEMAND BRANCH 3,WATERUSE:CONNECTIONS,ROOM_2_FLR_3WATER USE CONNECTIONS,NODE 231,NODE 232,DHW Nodes
 Component Set,78,BRANCH,MAIN SERVICE WATER LOOP DEMAND BRANCH 4,WATERUSE:CONNECTIONS,ROOM_5_FLR_3WATER USE CONNECTIONS,NODE 233,NODE 234,DHW Nodes
 Component Set,79,BRANCH,MAIN SERVICE WATER LOOP DEMAND BRANCH 5,WATERUSE:CONNECTIONS,ROOM_6_FLR_3WATER USE CONNECTIONS,NODE 235,NODE 236,DHW Nodes
 Component Set,80,BRANCH,MAIN SERVICE WATER LOOP DEMAND BRANCH 6,WATERUSE:CONNECTIONS,ROOM_3_MULT19_FLR_3WATER USE CONNECTIONS,NODE 237,NODE 238,DHW Nodes
 Component Set,81,BRANCH,MAIN SERVICE WATER LOOP DEMAND BRANCH 7,WATERUSE:CONNECTIONS,ROOM_4_MULT19_FLR_3WATER USE CONNECTIONS,NODE 239,NODE 240,DHW Nodes
 Component Set,82,BRANCH,MAIN SERVICE WATER LOOP DEMAND BRANCH 8,WATERUSE:CONNECTIONS,ROOM_1_FLR_6WATER USE CONNECTIONS,NODE 241,NODE 242,DHW Nodes
 Component Set,83,BRANCH,MAIN SERVICE WATER LOOP DEMAND BRANCH 9,WATERUSE:CONNECTIONS,ROOM_2_FLR_6WATER USE CONNECTIONS,NODE 243,NODE 244,DHW Nodes
 Component Set,84,BRANCH,MAIN SERVICE WATER LOOP DEMAND BRANCH 10,WATERUSE:CONNECTIONS,ROOM_3_MULT9_FLR_6WATER USE CONNECTIONS,NODE 245,NODE 246,DHW Nodes
 Component Set,85,BRANCH,MAIN SERVICE WATER LOOP DEMAND BRANCH 11,WATERUSE:CONNECTIONS,KITCHEN_FLR_6WATER USE CONNECTIONS,NODE 247,NODE 248,DHW Nodes
 Component Set,86,BRANCH,MAIN SERVICE WATER LOOP DEMAND BRANCH 12,HEATEXCHANGER:FLUIDTOFLUID,HX FOR BOOSTER WATER HEATING,NODE 280,NODE 281,Loop Demand Side Plant Nodes
 Component Set,87,BRANCH,MAIN SERVICE WATER LOOP DEMAND BYPASS BRANCH,PIPE:ADIABATIC,MAIN SERVICE WATER LOOP DEMAND BYPASS PIPE,MAIN SERVICE WATER LOOP DEMAND BYPASS PIPE INLET NODE,MAIN SERVICE WATER LOOP DEMAND BYPASS PIPE OUTLET NODE,Pipe Nodes
 Component Set,88,BRANCH,MAIN SERVICE WATER LOOP DEMAND OUTLET BRANCH,PIPE:ADIABATIC,PIPE ADIABATIC 15,NODE 228,NODE 219,Pipe Nodes
 Component Set,89,BRANCH,SERVICE WATER LOOP SUPPLY INLET BRANCH,HEATEXCHANGER:FLUIDTOFLUID,HX FOR BOOSTER WATER HEATING,NODE 265,NODE 279,Loop Supply Side Plant Nodes
 Component Set,90,BRANCH,SERVICE WATER LOOP SUPPLY INLET BRANCH,PUMP:CONSTANTSPEED,BOOSTER WATER LOOP PUMP,NODE 279,NODE 271,Water Nodes
 Component Set,91,BRANCH,SERVICE WATER LOOP SUPPLY BRANCH 1,WATERHEATER:MIXED,6.0GAL ELECTRICITY WATER HEATER - 27KBTU/HR 1.0EFF,NODE 267,NODE 272,Use Side Water Nodes
 Component Set,92,BRANCH,SERVICE WATER LOOP SUPPLY BRANCH 2,PIPE:ADIABATIC,PIPE ADIABATIC 21,NODE 273,NODE 274,Pipe Nodes
 Component Set,93,BRANCH,SERVICE WATER LOOP SUPPLY OUTLET BRANCH,PIPE:ADIABATIC,PIPE ADIABATIC 23,NODE 276,NODE 266,Pipe Nodes
 Component Set,94,BRANCH,SERVICE WATER LOOP DEMAND INLET BRANCH,PIPE:ADIABATIC,PIPE ADIABATIC 24,NODE 268,NODE 277,Pipe Nodes
 Component Set,95,BRANCH,SERVICE WATER LOOP DEMAND BRANCH 1,PIPE:ADIABATIC,PIPE ADIABATIC 22,NODE 270,NODE 275,Pipe Nodes
 Component Set,96,BRANCH,SERVICE WATER LOOP DEMAND BRANCH 2,WATERUSE:CONNECTIONS,WATER USE CONNECTIONS 2,NODE 282,NODE 283,DHW Nodes
 Component Set,97,BRANCH,SERVICE WATER LOOP DEMAND BYPASS BRANCH,PIPE:ADIABATIC,SERVICE WATER LOOP DEMAND BYPASS PIPE,SERVICE WATER LOOP DEMAND BYPASS PIPE INLET NODE,SERVICE WATER LOOP DEMAND BYPASS PIPE OUTLET NODE,Pipe Nodes
 Component Set,98,BRANCH,SERVICE WATER LOOP DEMAND OUTLET BRANCH,PIPE:ADIABATIC,PIPE ADIABATIC 25,NODE 278,NODE 269,Pipe Nodes
 Component Set,99,ZONEHVAC:AIRDISTRIBUTIONUNIT,ADU BANQUET_FLR_6 ZN VAV TERM,AIRTERMINAL:SINGLEDUCT:VAV:REHEAT,BANQUET_FLR_6 ZN VAV TERM,NODE 114,NODE 112,Air Nodes
 Component Set,100,ZONEHVAC:AIRDISTRIBUTIONUNIT,ADU BASEMENT ZN VAV TERM,AIRTERMINAL:SINGLEDUCT:VAV:REHEAT,BASEMENT ZN VAV TERM,NODE 69,NODE 56,Air Nodes
 Component Set,101,ZONEHVAC:AIRDISTRIBUTIONUNIT,ADU CAFE_FLR_1 ZN VAV TERM,AIRTERMINAL:SINGLEDUCT:VAV:REHEAT,CAFE_FLR_1 ZN VAV TERM,NODE 99,NODE 97,Air Nodes
 Component Set,102,ZONEHVAC:AIRDISTRIBUTIONUNIT,ADU CORRIDOR_FLR_3 ZN VAV TERM,AIRTERMINAL:SINGLEDUCT:VAV:REHEAT,CORRIDOR_FLR_3 ZN VAV TERM,NODE 109,NODE 107,Air Nodes
 Component Set,103,ZONEHVAC:AIRDISTRIBUTIONUNIT,ADU CORRIDOR_FLR_6 ZN VAV TERM,AIRTERMINAL:SINGLEDUCT:VAV:REHEAT,CORRIDOR_FLR_6 ZN VAV TERM,NODE 124,NODE 122,Air Nodes
 Component Set,104,ZONEHVAC:AIRDISTRIBUTIONUNIT,ADU DINING_FLR_6 ZN VAV TERM,AIRTERMINAL:SINGLEDUCT:VAV:REHEAT,DINING_FLR_6 ZN VAV TERM,NODE 119,NODE 117,Air Nodes
 Component Set,105,ZONEHVAC:AIRDISTRIBUTIONUNIT,ADU KITCHEN_FLR_6 ZN VAV TERM,AIRTERMINAL:SINGLEDUCT:VAV:REHEAT,KITCHEN_FLR_6 ZN VAV TERM,NODE 129,NODE 127,Air Nodes
 Component Set,106,ZONEHVAC:AIRDISTRIBUTIONUNIT,ADU LAUNDRY_FLR_1 ZN VAV TERM,AIRTERMINAL:SINGLEDUCT:VAV:REHEAT,LAUNDRY_FLR_1 ZN VAV TERM,NODE 94,NODE 92,Air Nodes
 Component Set,107,ZONEHVAC:AIRDISTRIBUTIONUNIT,ADU LOBBY_FLR_1 ZN VAV TERM,AIRTERMINAL:SINGLEDUCT:VAV:REHEAT,LOBBY_FLR_1 ZN VAV TERM,NODE 104,NODE 102,Air Nodes
 Component Set,108,ZONEHVAC:AIRDISTRIBUTIONUNIT,ADU MECH_FLR_1 ZN VAV TERM,AIRTERMINAL:SINGLEDUCT:VAV:REHEAT,MECH_FLR_1 ZN VAV TERM,NODE 84,NODE 82,Air Nodes
 Component Set,109,ZONEHVAC:AIRDISTRIBUTIONUNIT,ADU RETAIL_1_FLR_1 ZN VAV TERM,AIRTERMINAL:SINGLEDUCT:VAV:REHEAT,RETAIL_1_FLR_1 ZN VAV TERM,NODE 74,NODE 72,Air Nodes
 Component Set,110,ZONEHVAC:AIRDISTRIBUTIONUNIT,ADU RETAIL_2_FLR_1 ZN VAV TERM,AIRTERMINAL:SINGLEDUCT:VAV:REHEAT,RETAIL_2_FLR_1 ZN VAV TERM,NODE 79,NODE 77,Air Nodes
 Component Set,111,ZONEHVAC:AIRDISTRIBUTIONUNIT,ADU STORAGE_FLR_1 ZN VAV TERM,AIRTERMINAL:SINGLEDUCT:VAV:REHEAT,STORAGE_FLR_1 ZN VAV TERM,NODE 89,NODE 87,Air Nodes
 Component Set,112,AIRTERMINAL:SINGLEDUCT:VAV:REHEAT,BANQUET_FLR_6 ZN VAV TERM,COIL:HEATING:WATER,BANQUET_FLR_6 ZN RHT COIL,BANQUET_FLR_6 ZN VAV TERM DAMPER OUTLET,NODE 112,Air Nodes
 Component Set,113,AIRTERMINAL:SINGLEDUCT:VAV:REHEAT,BASEMENT ZN VAV TERM,COIL:HEATING:WATER,BASEMENT ZN RHT COIL,BASEMENT ZN VAV TERM DAMPER OUTLET,NODE 56,Air Nodes
 Component Set,114,AIRTERMINAL:SINGLEDUCT:VAV:REHEAT,CAFE_FLR_1 ZN VAV TERM,COIL:HEATING:WATER,CAFE_FLR_1 ZN RHT COIL,CAFE_FLR_1 ZN VAV TERM DAMPER OUTLET,NODE 97,Air Nodes
 Component Set,115,AIRTERMINAL:SINGLEDUCT:VAV:REHEAT,CORRIDOR_FLR_3 ZN VAV TERM,COIL:HEATING:WATER,CORRIDOR_FLR_3 ZN RHT COIL,CORRIDOR_FLR_3 ZN VAV TERM DAMPER OUTLET,NODE 107,Air Nodes
 Component Set,116,AIRTERMINAL:SINGLEDUCT:VAV:REHEAT,CORRIDOR_FLR_6 ZN VAV TERM,COIL:HEATING:WATER,CORRIDOR_FLR_6 ZN RHT COIL,CORRIDOR_FLR_6 ZN VAV TERM DAMPER OUTLET,NODE 122,Air Nodes
 Component Set,117,AIRTERMINAL:SINGLEDUCT:VAV:REHEAT,DINING_FLR_6 ZN VAV TERM,COIL:HEATING:WATER,DINING_FLR_6 ZN RHT COIL,DINING_FLR_6 ZN VAV TERM DAMPER OUTLET,NODE 117,Air Nodes
 Component Set,118,AIRTERMINAL:SINGLEDUCT:VAV:REHEAT,KITCHEN_FLR_6 ZN VAV TERM,COIL:HEATING:WATER,KITCHEN_FLR_6 ZN RHT COIL,KITCHEN_FLR_6 ZN VAV TERM DAMPER OUTLET,NODE 127,Air Nodes
 Component Set,119,AIRTERMINAL:SINGLEDUCT:VAV:REHEAT,LAUNDRY_FLR_1 ZN VAV TERM,COIL:HEATING:WATER,LAUNDRY_FLR_1 ZN RHT COIL,LAUNDRY_FLR_1 ZN VAV TERM DAMPER OUTLET,NODE 92,Air Nodes
 Component Set,120,AIRTERMINAL:SINGLEDUCT:VAV:REHEAT,LOBBY_FLR_1 ZN VAV TERM,COIL:HEATING:WATER,LOBBY_FLR_1 ZN RHT COIL,LOBBY_FLR_1 ZN VAV TERM DAMPER OUTLET,NODE 102,Air Nodes
 Component Set,121,AIRTERMINAL:SINGLEDUCT:VAV:REHEAT,MECH_FLR_1 ZN VAV TERM,COIL:HEATING:WATER,MECH_FLR_1 ZN RHT COIL,MECH_FLR_1 ZN VAV TERM DAMPER OUTLET,NODE 82,Air Nodes
 Component Set,122,AIRTERMINAL:SINGLEDUCT:VAV:REHEAT,RETAIL_1_FLR_1 ZN VAV TERM,COIL:HEATING:WATER,RETAIL_1_FLR_1 ZN RHT COIL,RETAIL_1_FLR_1 ZN VAV TERM DAMPER OUTLET,NODE 72,Air Nodes
 Component Set,123,AIRTERMINAL:SINGLEDUCT:VAV:REHEAT,RETAIL_2_FLR_1 ZN VAV TERM,COIL:HEATING:WATER,RETAIL_2_FLR_1 ZN RHT COIL,RETAIL_2_FLR_1 ZN VAV TERM DAMPER OUTLET,NODE 77,Air Nodes
 Component Set,124,ZONEHVAC:FOURPIPEFANCOIL,ROOM_1_FLR_3 ZNFCU,COIL:HEATING:WATER,ROOM_1_FLR_3 ZNFCU HEATING COIL,ROOM_1_FLR_3 ZNFCU COOLING COIL OUTLET NODE,NODE 149,Air Nodes
 Component Set,125,ZONEHVAC:FOURPIPEFANCOIL,ROOM_1_FLR_6 ZNFCU,COIL:HEATING:WATER,ROOM_1_FLR_6 ZNFCU HEATING COIL,ROOM_1_FLR_6 ZNFCU COOLING COIL OUTLET NODE,NODE 196,Air Nodes
 Component Set,126,ZONEHVAC:FOURPIPEFANCOIL,ROOM_2_FLR_3 ZNFCU,COIL:HEATING:WATER,ROOM_2_FLR_3 ZNFCU HEATING COIL,ROOM_2_FLR_3 ZNFCU COOLING COIL OUTLET NODE,NODE 156,Air Nodes
 Component Set,127,ZONEHVAC:FOURPIPEFANCOIL,ROOM_2_FLR_6 ZNFCU,COIL:HEATING:WATER,ROOM_2_FLR_6 ZNFCU HEATING COIL,ROOM_2_FLR_6 ZNFCU COOLING COIL OUTLET NODE,NODE 204,Air Nodes
 Component Set,128,ZONEHVAC:FOURPIPEFANCOIL,ROOM_3_MULT19_FLR_3 ZNFCU,COIL:HEATING:WATER,ROOM_3_MULT19_FLR_3 ZNFCU HEATING COIL,ROOM_3_MULT19_FLR_3 ZNFCU COOLING COIL OUTLET NODE,NODE 164,Air Nodes
 Component Set,129,ZONEHVAC:FOURPIPEFANCOIL,ROOM_3_MULT9_FLR_6 ZNFCU,COIL:HEATING:WATER,ROOM_3_MULT9_FLR_6 ZNFCU HEATING COIL,ROOM_3_MULT9_FLR_6 ZNFCU COOLING COIL OUTLET NODE,NODE 212,Air Nodes
 Component Set,130,ZONEHVAC:FOURPIPEFANCOIL,ROOM_4_MULT19_FLR_3 ZNFCU,COIL:HEATING:WATER,ROOM_4_MULT19_FLR_3 ZNFCU HEATING COIL,ROOM_4_MULT19_FLR_3 ZNFCU COOLING COIL OUTLET NODE,NODE 172,Air Nodes
 Component Set,131,ZONEHVAC:FOURPIPEFANCOIL,ROOM_5_FLR_3 ZNFCU,COIL:HEATING:WATER,ROOM_5_FLR_3 ZNFCU HEATING COIL,ROOM_5_FLR_3 ZNFCU COOLING COIL OUTLET NODE,NODE 180,Air Nodes
 Component Set,132,ZONEHVAC:FOURPIPEFANCOIL,ROOM_6_FLR_3 ZNFCU,COIL:HEATING:WATER,ROOM_6_FLR_3 ZNFCU HEATING COIL,ROOM_6_FLR_3 ZNFCU COOLING COIL OUTLET NODE,NODE 188,Air Nodes
 Component Set,133,AIRTERMINAL:SINGLEDUCT:VAV:REHEAT,STORAGE_FLR_1 ZN VAV TERM,COIL:HEATING:WATER,STORAGE_FLR_1 ZN RHT COIL,STORAGE_FLR_1 ZN VAV TERM DAMPER OUTLET,NODE 87,Air Nodes
 Component Set,134,ZONEHVAC:FOURPIPEFANCOIL,ROOM_1_FLR_3 ZNFCU,COIL:COOLING:WATER,ROOM_1_FLR_3 ZNFCU COOLING COIL,ROOM_1_FLR_3 ZNFCU FAN OUTLET NODE,ROOM_1_FLR_3 ZNFCU COOLING COIL OUTLET NODE,Air Nodes
 Component Set,135,ZONEHVAC:FOURPIPEFANCOIL,ROOM_1_FLR_6 ZNFCU,COIL:COOLING:WATER,ROOM_1_FLR_6 ZNFCU COOLING COIL,ROOM_1_FLR_6 ZNFCU FAN OUTLET NODE,ROOM_1_FLR_6 ZNFCU COOLING COIL OUTLET NODE,Air Nodes
 Component Set,136,ZONEHVAC:FOURPIPEFANCOIL,ROOM_2_FLR_3 ZNFCU,COIL:COOLING:WATER,ROOM_2_FLR_3 ZNFCU COOLING COIL,ROOM_2_FLR_3 ZNFCU FAN OUTLET NODE,ROOM_2_FLR_3 ZNFCU COOLING COIL OUTLET NODE,Air Nodes
 Component Set,137,ZONEHVAC:FOURPIPEFANCOIL,ROOM_2_FLR_6 ZNFCU,COIL:COOLING:WATER,ROOM_2_FLR_6 ZNFCU COOLING COIL,ROOM_2_FLR_6 ZNFCU FAN OUTLET NODE,ROOM_2_FLR_6 ZNFCU COOLING COIL OUTLET NODE,Air Nodes
 Component Set,138,ZONEHVAC:FOURPIPEFANCOIL,ROOM_3_MULT19_FLR_3 ZNFCU,COIL:COOLING:WATER,ROOM_3_MULT19_FLR_3 ZNFCU COOLING COIL,ROOM_3_MULT19_FLR_3 ZNFCU FAN OUTLET NODE,ROOM_3_MULT19_FLR_3 ZNFCU COOLING COIL OUTLET NODE,Air Nodes
 Component Set,139,ZONEHVAC:FOURPIPEFANCOIL,ROOM_3_MULT9_FLR_6 ZNFCU,COIL:COOLING:WATER,ROOM_3_MULT9_FLR_6 ZNFCU COOLING COIL,ROOM_3_MULT9_FLR_6 ZNFCU FAN OUTLET NODE,ROOM_3_MULT9_FLR_6 ZNFCU COOLING COIL OUTLET NODE,Air Nodes
 Component Set,140,ZONEHVAC:FOURPIPEFANCOIL,ROOM_4_MULT19_FLR_3 ZNFCU,COIL:COOLING:WATER,ROOM_4_MULT19_FLR_3 ZNFCU COOLING COIL,ROOM_4_MULT19_FLR_3 ZNFCU FAN OUTLET NODE,ROOM_4_MULT19_FLR_3 ZNFCU COOLING COIL OUTLET NODE,Air Nodes
 Component Set,141,ZONEHVAC:FOURPIPEFANCOIL,ROOM_5_FLR_3 ZNFCU,COIL:COOLING:WATER,ROOM_5_FLR_3 ZNFCU COOLING COIL,ROOM_5_FLR_3 ZNFCU FAN OUTLET NODE,ROOM_5_FLR_3 ZNFCU COOLING COIL OUTLET NODE,Air Nodes
 Component Set,142,ZONEHVAC:FOURPIPEFANCOIL,ROOM_6_FLR_3 ZNFCU,COIL:COOLING:WATER,ROOM_6_FLR_3 ZNFCU COOLING COIL,ROOM_6_FLR_3 ZNFCU FAN OUTLET NODE,ROOM_6_FLR_3 ZNFCU COOLING COIL OUTLET NODE,Air Nodes
 Component Set,143,ZONEHVAC:FOURPIPEFANCOIL,ROOM_1_FLR_3 ZNFCU,OUTDOORAIR:MIXER,ROOM_1_FLR_3 ZNFCU OA MIXER,ROOM_1_FLR_3 ZNFCU OA NODE,ROOM_1_FLR_3 ZNFCU MIXED AIR NODE,Air Nodes
 Component Set,144,ZONEHVAC:FOURPIPEFANCOIL,ROOM_1_FLR_6 ZNFCU,OUTDOORAIR:MIXER,ROOM_1_FLR_6 ZNFCU OA MIXER,ROOM_1_FLR_6 ZNFCU OA NODE,ROOM_1_FLR_6 ZNFCU MIXED AIR NODE,Air Nodes
 Component Set,145,ZONEHVAC:FOURPIPEFANCOIL,ROOM_2_FLR_3 ZNFCU,OUTDOORAIR:MIXER,ROOM_2_FLR_3 ZNFCU OA MIXER,ROOM_2_FLR_3 ZNFCU OA NODE,ROOM_2_FLR_3 ZNFCU MIXED AIR NODE,Air Nodes
 Component Set,146,ZONEHVAC:FOURPIPEFANCOIL,ROOM_2_FLR_6 ZNFCU,OUTDOORAIR:MIXER,ROOM_2_FLR_6 ZNFCU OA MIXER,ROOM_2_FLR_6 ZNFCU OA NODE,ROOM_2_FLR_6 ZNFCU MIXED AIR NODE,Air Nodes
 Component Set,147,ZONEHVAC:FOURPIPEFANCOIL,ROOM_3_MULT19_FLR_3 ZNFCU,OUTDOORAIR:MIXER,ROOM_3_MULT19_FLR_3 ZNFCU OA MIXER,ROOM_3_MULT19_FLR_3 ZNFCU OA NODE,ROOM_3_MULT19_FLR_3 ZNFCU MIXED AIR NODE,Air Nodes
 Component Set,148,ZONEHVAC:FOURPIPEFANCOIL,ROOM_3_MULT9_FLR_6 ZNFCU,OUTDOORAIR:MIXER,ROOM_3_MULT9_FLR_6 ZNFCU OA MIXER,ROOM_3_MULT9_FLR_6 ZNFCU OA NODE,ROOM_3_MULT9_FLR_6 ZNFCU MIXED AIR NODE,Air Nodes
 Component Set,149,ZONEHVAC:FOURPIPEFANCOIL,ROOM_4_MULT19_FLR_3 ZNFCU,OUTDOORAIR:MIXER,ROOM_4_MULT19_FLR_3 ZNFCU OA MIXER,ROOM_4_MULT19_FLR_3 ZNFCU OA NODE,ROOM_4_MULT19_FLR_3 ZNFCU MIXED AIR NODE,Air Nodes
 Component Set,150,ZONEHVAC:FOURPIPEFANCOIL,ROOM_5_FLR_3 ZNFCU,OUTDOORAIR:MIXER,ROOM_5_FLR_3 ZNFCU OA MIXER,ROOM_5_FLR_3 ZNFCU OA NODE,ROOM_5_FLR_3 ZNFCU MIXED AIR NODE,Air Nodes
 Component Set,151,ZONEHVAC:FOURPIPEFANCOIL,ROOM_6_FLR_3 ZNFCU,OUTDOORAIR:MIXER,ROOM_6_FLR_3 ZNFCU OA MIXER,ROOM_6_FLR_3 ZNFCU OA NODE,ROOM_6_FLR_3 ZNFCU MIXED AIR NODE,Air Nodes
 Component Set,152,AIRLOOPHVAC:OUTDOORAIRSYSTEM,AIR LOOP HVAC OUTDOOR AIR SYSTEM 1,OUTDOORAIR:MIXER,AIR LOOP HVAC OUTDOOR AIR SYSTEM 1 OUTDOOR AIR MIXER,NODE 141,NODE 143,Air Nodes
 Component Set,153,AIRLOOPHVAC:OUTDOORAIRSYSTEM,VAV WITH REHEAT OA SYS,OUTDOORAIR:MIXER,VAV WITH REHEAT OA SYS OUTDOOR AIR MIXER,NODE 63,NODE 65,Air Nodes
 Component Set,154,ZONEHVAC:FOURPIPEFANCOIL,ROOM_1_FLR_3 ZNFCU,FAN:ONOFF,ROOM_1_FLR_3 ZN FAN COIL FAN,ROOM_1_FLR_3 ZNFCU MIXED AIR NODE,ROOM_1_FLR_3 ZNFCU FAN OUTLET NODE,Air Nodes
 Component Set,155,ZONEHVAC:FOURPIPEFANCOIL,ROOM_1_FLR_6 ZNFCU,FAN:ONOFF,ROOM_1_FLR_6 ZN FAN COIL FAN,ROOM_1_FLR_6 ZNFCU MIXED AIR NODE,ROOM_1_FLR_6 ZNFCU FAN OUTLET NODE,Air Nodes
 Component Set,156,ZONEHVAC:FOURPIPEFANCOIL,ROOM_2_FLR_3 ZNFCU,FAN:ONOFF,ROOM_2_FLR_3 ZN FAN COIL FAN,ROOM_2_FLR_3 ZNFCU MIXED AIR NODE,ROOM_2_FLR_3 ZNFCU FAN OUTLET NODE,Air Nodes
 Component Set,157,ZONEHVAC:FOURPIPEFANCOIL,ROOM_2_FLR_6 ZNFCU,FAN:ONOFF,ROOM_2_FLR_6 ZN FAN COIL FAN,ROOM_2_FLR_6 ZNFCU MIXED AIR NODE,ROOM_2_FLR_6 ZNFCU FAN OUTLET NODE,Air Nodes
 Component Set,158,ZONEHVAC:FOURPIPEFANCOIL,ROOM_3_MULT19_FLR_3 ZNFCU,FAN:ONOFF,ROOM_3_MULT19_FLR_3 ZN FAN COIL FAN,ROOM_3_MULT19_FLR_3 ZNFCU MIXED AIR NODE,ROOM_3_MULT19_FLR_3 ZNFCU FAN OUTLET NODE,Air Nodes
 Component Set,159,ZONEHVAC:FOURPIPEFANCOIL,ROOM_3_MULT9_FLR_6 ZNFCU,FAN:ONOFF,ROOM_3_MULT9_FLR_6 ZN FAN COIL FAN,ROOM_3_MULT9_FLR_6 ZNFCU MIXED AIR NODE,ROOM_3_MULT9_FLR_6 ZNFCU FAN OUTLET NODE,Air Nodes
 Component Set,160,ZONEHVAC:FOURPIPEFANCOIL,ROOM_4_MULT19_FLR_3 ZNFCU,FAN:ONOFF,ROOM_4_MULT19_FLR_3 ZN FAN COIL FAN,ROOM_4_MULT19_FLR_3 ZNFCU MIXED AIR NODE,ROOM_4_MULT19_FLR_3 ZNFCU FAN OUTLET NODE,Air Nodes
 Component Set,161,ZONEHVAC:FOURPIPEFANCOIL,ROOM_5_FLR_3 ZNFCU,FAN:ONOFF,ROOM_5_FLR_3 ZN FAN COIL FAN,ROOM_5_FLR_3 ZNFCU MIXED AIR NODE,ROOM_5_FLR_3 ZNFCU FAN OUTLET NODE,Air Nodes
 Component Set,162,ZONEHVAC:FOURPIPEFANCOIL,ROOM_6_FLR_3 ZNFCU,FAN:ONOFF,ROOM_6_FLR_3 ZN FAN COIL FAN,ROOM_6_FLR_3 ZNFCU MIXED AIR NODE,ROOM_6_FLR_3 ZNFCU FAN OUTLET NODE,Air Nodes
! ===============================================================
! <# Plant Loops>,<Number of Plant Loops>
 #Plant Loops,5
! <Plant Loop>,<Plant Loop Name>,<Loop Type>,<Inlet Node Name>,<Outlet Node Name>,<Branch List>,<Connector List>
! <Plant Loop Connector>,<Connector Type>,<Connector Name>,<Loop Name>,<Loop Type>,<Number of Inlets/Outlets>
! <Plant Loop Connector Branches>,<Connector Node Count>,<Connector Type>,<Connector Name>,<Inlet Branch>,<Outlet Branch>,<Loop Name>,<Loop Type>
! <Plant Loop Connector Nodes>,<Connector Node Count>,<Connector Type>,<Connector Name>,<Inlet Node>,<Outlet Node>,<Loop Name>,<Loop Type>
! <Plant Loop Supply Connection>,<Plant Loop Name>,<Supply Side Outlet Node Name>,<Demand Side Inlet Node Name>
! <Plant Loop Return Connection>,<Plant Loop Name>,<Demand Side Outlet Node Name>,<Supply Side Inlet Node Name>
 Plant Loop,CHILLED WATER LOOP,Demand,NODE 26,NODE 27,CHILLED WATER LOOP DEMAND BRANCHES,CHILLED WATER LOOP DEMAND CONNECTOR LIST
   Plant Loop Connector,Splitter,CHILLED WATER LOOP DEMAND SPLITTER,CHILLED WATER LOOP,Demand,13
     Plant Loop Connector Branches,1,Splitter,CHILLED WATER LOOP DEMAND SPLITTER,CHILLED WATER LOOP DEMAND INLET BRANCH,CHILLED WATER LOOP DEMAND BRANCH 1,CHILLED WATER LOOP,Demand
     Plant Loop Connector Nodes,   1,Splitter,CHILLED WATER LOOP DEMAND SPLITTER,NODE 30,NODE 28,CHILLED WATER LOOP,Demand
     Plant Loop Connector Branches,2,Splitter,CHILLED WATER LOOP DEMAND SPLITTER,CHILLED WATER LOOP DEMAND INLET BRANCH,CHILLED WATER LOOP DEMAND BRANCH 2,CHILLED WATER LOOP,Demand
     Plant Loop Connector Nodes,   2,Splitter,CHILLED WATER LOOP DEMAND SPLITTER,NODE 30,NODE 61,CHILLED WATER LOOP,Demand
     Plant Loop Connector Branches,3,Splitter,CHILLED WATER LOOP DEMAND SPLITTER,CHILLED WATER LOOP DEMAND INLET BRANCH,CHILLED WATER LOOP DEMAND BRANCH 3,CHILLED WATER LOOP,Demand
     Plant Loop Connector Nodes,   3,Splitter,CHILLED WATER LOOP DEMAND SPLITTER,NODE 30,NODE 138,CHILLED WATER LOOP,Demand
     Plant Loop Connector Branches,4,Splitter,CHILLED WATER LOOP DEMAND SPLITTER,CHILLED WATER LOOP DEMAND INLET BRANCH,CHILLED WATER LOOP DEMAND BRANCH 4,CHILLED WATER LOOP,Demand
     Plant Loop Connector Nodes,   4,Splitter,CHILLED WATER LOOP DEMAND SPLITTER,NODE 30,NODE 144,CHILLED WATER LOOP,Demand
     Plant Loop Connector Branches,5,Splitter,CHILLED WATER LOOP DEMAND SPLITTER,CHILLED WATER LOOP DEMAND INLET BRANCH,CHILLED WATER LOOP DEMAND BRANCH 5,CHILLED WATER LOOP,Demand
     Plant Loop Connector Nodes,   5,Splitter,CHILLED WATER LOOP DEMAND SPLITTER,NODE 30,NODE 151,CHILLED WATER LOOP,Demand
     Plant Loop Connector Branches,6,Splitter,CHILLED WATER LOOP DEMAND SPLITTER,CHILLED WATER LOOP DEMAND INLET BRANCH,CHILLED WATER LOOP DEMAND BRANCH 6,CHILLED WATER LOOP,Demand
     Plant Loop Connector Nodes,   6,Splitter,CHILLED WATER LOOP DEMAND SPLITTER,NODE 30,NODE 159,CHILLED WATER LOOP,Demand
     Plant Loop Connector Branches,7,Splitter,CHILLED WATER LOOP DEMAND SPLITTER,CHILLED WATER LOOP DEMAND INLET BRANCH,CHILLED WATER LOOP DEMAND BRANCH 7,CHILLED WATER LOOP,Demand
     Plant Loop Connector Nodes,   7,Splitter,CHILLED WATER LOOP DEMAND SPLITTER,NODE 30,NODE 167,CHILLED WATER LOOP,Demand
     Plant Loop Connector Branches,8,Splitter,CHILLED WATER LOOP DEMAND SPLITTER,CHILLED WATER LOOP DEMAND INLET BRANCH,CHILLED WATER LOOP DEMAND BRANCH 8,CHILLED WATER LOOP,Demand
     Plant Loop Connector Nodes,   8,Splitter,CHILLED WATER LOOP DEMAND SPLITTER,NODE 30,NODE 175,CHILLED WATER LOOP,Demand
     Plant Loop Connector Branches,9,Splitter,CHILLED WATER LOOP DEMAND SPLITTER,CHILLED WATER LOOP DEMAND INLET BRANCH,CHILLED WATER LOOP DEMAND BRANCH 9,CHILLED WATER LOOP,Demand
     Plant Loop Connector Nodes,   9,Splitter,CHILLED WATER LOOP DEMAND SPLITTER,NODE 30,NODE 183,CHILLED WATER LOOP,Demand
     Plant Loop Connector Branches,10,Splitter,CHILLED WATER LOOP DEMAND SPLITTER,CHILLED WATER LOOP DEMAND INLET BRANCH,CHILLED WATER LOOP DEMAND BRANCH 10,CHILLED WATER LOOP,Demand
     Plant Loop Connector Nodes,   10,Splitter,CHILLED WATER LOOP DEMAND SPLITTER,NODE 30,NODE 191,CHILLED WATER LOOP,Demand
     Plant Loop Connector Branches,11,Splitter,CHILLED WATER LOOP DEMAND SPLITTER,CHILLED WATER LOOP DEMAND INLET BRANCH,CHILLED WATER LOOP DEMAND BRANCH 11,CHILLED WATER LOOP,Demand
     Plant Loop Connector Nodes,   11,Splitter,CHILLED WATER LOOP DEMAND SPLITTER,NODE 30,NODE 199,CHILLED WATER LOOP,Demand
     Plant Loop Connector Branches,12,Splitter,CHILLED WATER LOOP DEMAND SPLITTER,CHILLED WATER LOOP DEMAND INLET BRANCH,CHILLED WATER LOOP DEMAND BRANCH 12,CHILLED WATER LOOP,Demand
     Plant Loop Connector Nodes,   12,Splitter,CHILLED WATER LOOP DEMAND SPLITTER,NODE 30,NODE 207,CHILLED WATER LOOP,Demand
     Plant Loop Connector Branches,13,Splitter,CHILLED WATER LOOP DEMAND SPLITTER,CHILLED WATER LOOP DEMAND INLET BRANCH,CHILLED WATER LOOP DEMAND BYPASS BRANCH,CHILLED WATER LOOP,Demand
     Plant Loop Connector Nodes,   13,Splitter,CHILLED WATER LOOP DEMAND SPLITTER,NODE 30,CHILLED WATER LOOP DEMAND BYPASS PIPE INLET NODE,CHILLED WATER LOOP,Demand
   Plant Loop Connector,Mixer,CHILLED WATER LOOP DEMAND MIXER,CHILLED WATER LOOP,Demand,13
     Plant Loop Connector Branches,1,Mixer,CHILLED WATER LOOP DEMAND MIXER,CHILLED WATER LOOP DEMAND BRANCH 1,CHILLED WATER LOOP DEMAND OUTLET BRANCH,CHILLED WATER LOOP,Demand
     Plant Loop Connector Nodes,   1,Mixer,CHILLED WATER LOOP DEMAND MIXER,NODE 34,NODE 37,CHILLED WATER LOOP,Demand
     Plant Loop Connector Branches,2,Mixer,CHILLED WATER LOOP DEMAND MIXER,CHILLED WATER LOOP DEMAND BRANCH 2,CHILLED WATER LOOP DEMAND OUTLET BRANCH,CHILLED WATER LOOP,Demand
     Plant Loop Connector Nodes,   2,Mixer,CHILLED WATER LOOP DEMAND MIXER,NODE 62,NODE 37,CHILLED WATER LOOP,Demand
     Plant Loop Connector Branches,3,Mixer,CHILLED WATER LOOP DEMAND MIXER,CHILLED WATER LOOP DEMAND BRANCH 3,CHILLED WATER LOOP DEMAND OUTLET BRANCH,CHILLED WATER LOOP,Demand
     Plant Loop Connector Nodes,   3,Mixer,CHILLED WATER LOOP DEMAND MIXER,NODE 139,NODE 37,CHILLED WATER LOOP,Demand
     Plant Loop Connector Branches,4,Mixer,CHILLED WATER LOOP DEMAND MIXER,CHILLED WATER LOOP DEMAND BRANCH 4,CHILLED WATER LOOP DEMAND OUTLET BRANCH,CHILLED WATER LOOP,Demand
     Plant Loop Connector Nodes,   4,Mixer,CHILLED WATER LOOP DEMAND MIXER,NODE 145,NODE 37,CHILLED WATER LOOP,Demand
     Plant Loop Connector Branches,5,Mixer,CHILLED WATER LOOP DEMAND MIXER,CHILLED WATER LOOP DEMAND BRANCH 5,CHILLED WATER LOOP DEMAND OUTLET BRANCH,CHILLED WATER LOOP,Demand
     Plant Loop Connector Nodes,   5,Mixer,CHILLED WATER LOOP DEMAND MIXER,NODE 152,NODE 37,CHILLED WATER LOOP,Demand
     Plant Loop Connector Branches,6,Mixer,CHILLED WATER LOOP DEMAND MIXER,CHILLED WATER LOOP DEMAND BRANCH 6,CHILLED WATER LOOP DEMAND OUTLET BRANCH,CHILLED WATER LOOP,Demand
     Plant Loop Connector Nodes,   6,Mixer,CHILLED WATER LOOP DEMAND MIXER,NODE 160,NODE 37,CHILLED WATER LOOP,Demand
     Plant Loop Connector Branches,7,Mixer,CHILLED WATER LOOP DEMAND MIXER,CHILLED WATER LOOP DEMAND BRANCH 7,CHILLED WATER LOOP DEMAND OUTLET BRANCH,CHILLED WATER LOOP,Demand
     Plant Loop Connector Nodes,   7,Mixer,CHILLED WATER LOOP DEMAND MIXER,NODE 168,NODE 37,CHILLED WATER LOOP,Demand
     Plant Loop Connector Branches,8,Mixer,CHILLED WATER LOOP DEMAND MIXER,CHILLED WATER LOOP DEMAND BRANCH 8,CHILLED WATER LOOP DEMAND OUTLET BRANCH,CHILLED WATER LOOP,Demand
     Plant Loop Connector Nodes,   8,Mixer,CHILLED WATER LOOP DEMAND MIXER,NODE 176,NODE 37,CHILLED WATER LOOP,Demand
     Plant Loop Connector Branches,9,Mixer,CHILLED WATER LOOP DEMAND MIXER,CHILLED WATER LOOP DEMAND BRANCH 9,CHILLED WATER LOOP DEMAND OUTLET BRANCH,CHILLED WATER LOOP,Demand
     Plant Loop Connector Nodes,   9,Mixer,CHILLED WATER LOOP DEMAND MIXER,NODE 184,NODE 37,CHILLED WATER LOOP,Demand
     Plant Loop Connector Branches,10,Mixer,CHILLED WATER LOOP DEMAND MIXER,CHILLED WATER LOOP DEMAND BRANCH 10,CHILLED WATER LOOP DEMAND OUTLET BRANCH,CHILLED WATER LOOP,Demand
     Plant Loop Connector Nodes,   10,Mixer,CHILLED WATER LOOP DEMAND MIXER,NODE 192,NODE 37,CHILLED WATER LOOP,Demand
     Plant Loop Connector Branches,11,Mixer,CHILLED WATER LOOP DEMAND MIXER,CHILLED WATER LOOP DEMAND BRANCH 11,CHILLED WATER LOOP DEMAND OUTLET BRANCH,CHILLED WATER LOOP,Demand
     Plant Loop Connector Nodes,   11,Mixer,CHILLED WATER LOOP DEMAND MIXER,NODE 200,NODE 37,CHILLED WATER LOOP,Demand
     Plant Loop Connector Branches,12,Mixer,CHILLED WATER LOOP DEMAND MIXER,CHILLED WATER LOOP DEMAND BRANCH 12,CHILLED WATER LOOP DEMAND OUTLET BRANCH,CHILLED WATER LOOP,Demand
     Plant Loop Connector Nodes,   12,Mixer,CHILLED WATER LOOP DEMAND MIXER,NODE 208,NODE 37,CHILLED WATER LOOP,Demand
     Plant Loop Connector Branches,13,Mixer,CHILLED WATER LOOP DEMAND MIXER,CHILLED WATER LOOP DEMAND BYPASS BRANCH,CHILLED WATER LOOP DEMAND OUTLET BRANCH,CHILLED WATER LOOP,Demand
     Plant Loop Connector Nodes,   13,Mixer,CHILLED WATER LOOP DEMAND MIXER,CHILLED WATER LOOP DEMAND BYPASS PIPE OUTLET NODE,NODE 37,CHILLED WATER LOOP,Demand
 Plant Loop,CHILLED WATER LOOP,Supply,NODE 23,NODE 24,CHILLED WATER LOOP SUPPLY BRANCHES,CHILLED WATER LOOP SUPPLY CONNECTOR LIST
   Plant Loop Connector,Splitter,CHILLED WATER LOOP SUPPLY SPLITTER,CHILLED WATER LOOP,Supply,2
     Plant Loop Connector Branches,1,Splitter,CHILLED WATER LOOP SUPPLY SPLITTER,CHILLED WATER LOOP SUPPLY INLET BRANCH,CHILLED WATER LOOP SUPPLY BRANCH 1,CHILLED WATER LOOP,Supply
     Plant Loop Connector Nodes,   1,Splitter,CHILLED WATER LOOP SUPPLY SPLITTER,NODE 29,NODE 25,CHILLED WATER LOOP,Supply
     Plant Loop Connector Branches,2,Splitter,CHILLED WATER LOOP SUPPLY SPLITTER,CHILLED WATER LOOP SUPPLY INLET BRANCH,CHILLED WATER LOOP SUPPLY BRANCH 2,CHILLED WATER LOOP,Supply
     Plant Loop Connector Nodes,   2,Splitter,CHILLED WATER LOOP SUPPLY SPLITTER,NODE 29,NODE 32,CHILLED WATER LOOP,Supply
   Plant Loop Connector,Mixer,CHILLED WATER LOOP SUPPLY MIXER,CHILLED WATER LOOP,Supply,2
     Plant Loop Connector Branches,1,Mixer,CHILLED WATER LOOP SUPPLY MIXER,CHILLED WATER LOOP SUPPLY BRANCH 1,CHILLED WATER LOOP SUPPLY OUTLET BRANCH,CHILLED WATER LOOP,Supply
     Plant Loop Connector Nodes,   1,Mixer,CHILLED WATER LOOP SUPPLY MIXER,NODE 31,NODE 35,CHILLED WATER LOOP,Supply
     Plant Loop Connector Branches,2,Mixer,CHILLED WATER LOOP SUPPLY MIXER,CHILLED WATER LOOP SUPPLY BRANCH 2,CHILLED WATER LOOP SUPPLY OUTLET BRANCH,CHILLED WATER LOOP,Supply
     Plant Loop Connector Nodes,   2,Mixer,CHILLED WATER LOOP SUPPLY MIXER,NODE 33,NODE 35,CHILLED WATER LOOP,Supply
 Plant Loop Supply Connection,CHILLED WATER LOOP,NODE 24,NODE 26
 Plant Loop Return Connection,CHILLED WATER LOOP,NODE 27,NODE 23
 Plant Loop,HOT WATER LOOP,Demand,NODE 41,NODE 42,HOT WATER LOOP DEMAND BRANCHES,HOT WATER LOOP DEMAND CONNECTOR LIST
   Plant Loop Connector,Splitter,HOT WATER LOOP DEMAND SPLITTER,HOT WATER LOOP,Demand,26
     Plant Loop Connector Branches,1,Splitter,HOT WATER LOOP DEMAND SPLITTER,HOT WATER LOOP DEMAND INLET BRANCH,HOT WATER LOOP DEMAND BRANCH 1,HOT WATER LOOP,Demand
     Plant Loop Connector Nodes,   1,Splitter,HOT WATER LOOP DEMAND SPLITTER,NODE 50,NODE 43,HOT WATER LOOP,Demand
     Plant Loop Connector Branches,2,Splitter,HOT WATER LOOP DEMAND SPLITTER,HOT WATER LOOP DEMAND INLET BRANCH,HOT WATER LOOP DEMAND BRANCH 2,HOT WATER LOOP,Demand
     Plant Loop Connector Nodes,   2,Splitter,HOT WATER LOOP DEMAND SPLITTER,NODE 50,NODE 58,HOT WATER LOOP,Demand
     Plant Loop Connector Branches,3,Splitter,HOT WATER LOOP DEMAND SPLITTER,HOT WATER LOOP DEMAND INLET BRANCH,HOT WATER LOOP DEMAND BRANCH 3,HOT WATER LOOP,Demand
     Plant Loop Connector Nodes,   3,Splitter,HOT WATER LOOP DEMAND SPLITTER,NODE 50,NODE 66,HOT WATER LOOP,Demand
     Plant Loop Connector Branches,4,Splitter,HOT WATER LOOP DEMAND SPLITTER,HOT WATER LOOP DEMAND INLET BRANCH,HOT WATER LOOP DEMAND BRANCH 4,HOT WATER LOOP,Demand
     Plant Loop Connector Nodes,   4,Splitter,HOT WATER LOOP DEMAND SPLITTER,NODE 50,NODE 70,HOT WATER LOOP,Demand
     Plant Loop Connector Branches,5,Splitter,HOT WATER LOOP DEMAND SPLITTER,HOT WATER LOOP DEMAND INLET BRANCH,HOT WATER LOOP DEMAND BRANCH 5,HOT WATER LOOP,Demand
     Plant Loop Connector Nodes,   5,Splitter,HOT WATER LOOP DEMAND SPLITTER,NODE 50,NODE 75,HOT WATER LOOP,Demand
     Plant Loop Connector Branches,6,Splitter,HOT WATER LOOP DEMAND SPLITTER,HOT WATER LOOP DEMAND INLET BRANCH,HOT WATER LOOP DEMAND BRANCH 6,HOT WATER LOOP,Demand
     Plant Loop Connector Nodes,   6,Splitter,HOT WATER LOOP DEMAND SPLITTER,NODE 50,NODE 80,HOT WATER LOOP,Demand
     Plant Loop Connector Branches,7,Splitter,HOT WATER LOOP DEMAND SPLITTER,HOT WATER LOOP DEMAND INLET BRANCH,HOT WATER LOOP DEMAND BRANCH 7,HOT WATER LOOP,Demand
     Plant Loop Connector Nodes,   7,Splitter,HOT WATER LOOP DEMAND SPLITTER,NODE 50,NODE 85,HOT WATER LOOP,Demand
     Plant Loop Connector Branches,8,Splitter,HOT WATER LOOP DEMAND SPLITTER,HOT WATER LOOP DEMAND INLET BRANCH,HOT WATER LOOP DEMAND BRANCH 8,HOT WATER LOOP,Demand
     Plant Loop Connector Nodes,   8,Splitter,HOT WATER LOOP DEMAND SPLITTER,NODE 50,NODE 90,HOT WATER LOOP,Demand
     Plant Loop Connector Branches,9,Splitter,HOT WATER LOOP DEMAND SPLITTER,HOT WATER LOOP DEMAND INLET BRANCH,HOT WATER LOOP DEMAND BRANCH 9,HOT WATER LOOP,Demand
     Plant Loop Connector Nodes,   9,Splitter,HOT WATER LOOP DEMAND SPLITTER,NODE 50,NODE 95,HOT WATER LOOP,Demand
     Plant Loop Connector Branches,10,Splitter,HOT WATER LOOP DEMAND SPLITTER,HOT WATER LOOP DEMAND INLET BRANCH,HOT WATER LOOP DEMAND BRANCH 10,HOT WATER LOOP,Demand
     Plant Loop Connector Nodes,   10,Splitter,HOT WATER LOOP DEMAND SPLITTER,NODE 50,NODE 100,HOT WATER LOOP,Demand
     Plant Loop Connector Branches,11,Splitter,HOT WATER LOOP DEMAND SPLITTER,HOT WATER LOOP DEMAND INLET BRANCH,HOT WATER LOOP DEMAND BRANCH 11,HOT WATER LOOP,Demand
     Plant Loop Connector Nodes,   11,Splitter,HOT WATER LOOP DEMAND SPLITTER,NODE 50,NODE 105,HOT WATER LOOP,Demand
     Plant Loop Connector Branches,12,Splitter,HOT WATER LOOP DEMAND SPLITTER,HOT WATER LOOP DEMAND INLET BRANCH,HOT WATER LOOP DEMAND BRANCH 12,HOT WATER LOOP,Demand
     Plant Loop Connector Nodes,   12,Splitter,HOT WATER LOOP DEMAND SPLITTER,NODE 50,NODE 110,HOT WATER LOOP,Demand
     Plant Loop Connector Branches,13,Splitter,HOT WATER LOOP DEMAND SPLITTER,HOT WATER LOOP DEMAND INLET BRANCH,HOT WATER LOOP DEMAND BRANCH 13,HOT WATER LOOP,Demand
     Plant Loop Connector Nodes,   13,Splitter,HOT WATER LOOP DEMAND SPLITTER,NODE 50,NODE 115,HOT WATER LOOP,Demand
     Plant Loop Connector Branches,14,Splitter,HOT WATER LOOP DEMAND SPLITTER,HOT WATER LOOP DEMAND INLET BRANCH,HOT WATER LOOP DEMAND BRANCH 14,HOT WATER LOOP,Demand
     Plant Loop Connector Nodes,   14,Splitter,HOT WATER LOOP DEMAND SPLITTER,NODE 50,NODE 120,HOT WATER LOOP,Demand
     Plant Loop Connector Branches,15,Splitter,HOT WATER LOOP DEMAND SPLITTER,HOT WATER LOOP DEMAND INLET BRANCH,HOT WATER LOOP DEMAND BRANCH 15,HOT WATER LOOP,Demand
     Plant Loop Connector Nodes,   15,Splitter,HOT WATER LOOP DEMAND SPLITTER,NODE 50,NODE 125,HOT WATER LOOP,Demand
     Plant Loop Connector Branches,16,Splitter,HOT WATER LOOP DEMAND SPLITTER,HOT WATER LOOP DEMAND INLET BRANCH,HOT WATER LOOP DEMAND BRANCH 16,HOT WATER LOOP,Demand
     Plant Loop Connector Nodes,   16,Splitter,HOT WATER LOOP DEMAND SPLITTER,NODE 50,NODE 135,HOT WATER LOOP,Demand
     Plant Loop Connector Branches,17,Splitter,HOT WATER LOOP DEMAND SPLITTER,HOT WATER LOOP DEMAND INLET BRANCH,HOT WATER LOOP DEMAND BRANCH 17,HOT WATER LOOP,Demand
     Plant Loop Connector Nodes,   17,Splitter,HOT WATER LOOP DEMAND SPLITTER,NODE 50,NODE 146,HOT WATER LOOP,Demand
     Plant Loop Connector Branches,18,Splitter,HOT WATER LOOP DEMAND SPLITTER,HOT WATER LOOP DEMAND INLET BRANCH,HOT WATER LOOP DEMAND BRANCH 18,HOT WATER LOOP,Demand
     Plant Loop Connector Nodes,   18,Splitter,HOT WATER LOOP DEMAND SPLITTER,NODE 50,NODE 153,HOT WATER LOOP,Demand
     Plant Loop Connector Branches,19,Splitter,HOT WATER LOOP DEMAND SPLITTER,HOT WATER LOOP DEMAND INLET BRANCH,HOT WATER LOOP DEMAND BRANCH 19,HOT WATER LOOP,Demand
     Plant Loop Connector Nodes,   19,Splitter,HOT WATER LOOP DEMAND SPLITTER,NODE 50,NODE 161,HOT WATER LOOP,Demand
     Plant Loop Connector Branches,20,Splitter,HOT WATER LOOP DEMAND SPLITTER,HOT WATER LOOP DEMAND INLET BRANCH,HOT WATER LOOP DEMAND BRANCH 20,HOT WATER LOOP,Demand
     Plant Loop Connector Nodes,   20,Splitter,HOT WATER LOOP DEMAND SPLITTER,NODE 50,NODE 169,HOT WATER LOOP,Demand
     Plant Loop Connector Branches,21,Splitter,HOT WATER LOOP DEMAND SPLITTER,HOT WATER LOOP DEMAND INLET BRANCH,HOT WATER LOOP DEMAND BRANCH 21,HOT WATER LOOP,Demand
     Plant Loop Connector Nodes,   21,Splitter,HOT WATER LOOP DEMAND SPLITTER,NODE 50,NODE 177,HOT WATER LOOP,Demand
     Plant Loop Connector Branches,22,Splitter,HOT WATER LOOP DEMAND SPLITTER,HOT WATER LOOP DEMAND INLET BRANCH,HOT WATER LOOP DEMAND BRANCH 22,HOT WATER LOOP,Demand
     Plant Loop Connector Nodes,   22,Splitter,HOT WATER LOOP DEMAND SPLITTER,NODE 50,NODE 185,HOT WATER LOOP,Demand
     Plant Loop Connector Branches,23,Splitter,HOT WATER LOOP DEMAND SPLITTER,HOT WATER LOOP DEMAND INLET BRANCH,HOT WATER LOOP DEMAND BRANCH 23,HOT WATER LOOP,Demand
     Plant Loop Connector Nodes,   23,Splitter,HOT WATER LOOP DEMAND SPLITTER,NODE 50,NODE 193,HOT WATER LOOP,Demand
[...]
 Non-Parent Node Connection,ROOM_1_FLR_3 ZNFCU OA NODE,OUTDOORAIR:MIXER,ROOM_1_FLR_3 ZNFCU OA MIXER,Inlet,1
 Non-Parent Node Connection,ROOM_1_FLR_3 ZNFCU RELIEF AIR NODE,OUTDOORAIR:MIXER,ROOM_1_FLR_3 ZNFCU OA MIXER,ReliefAir,1
 Non-Parent Node Connection,NODE 148,OUTDOORAIR:MIXER,ROOM_1_FLR_3 ZNFCU OA MIXER,Inlet,1
 Non-Parent Node Connection,ROOM_1_FLR_6 ZNFCU MIXED AIR NODE,OUTDOORAIR:MIXER,ROOM_1_FLR_6 ZNFCU OA MIXER,Outlet,1
 Non-Parent Node Connection,ROOM_1_FLR_6 ZNFCU OA NODE,OUTDOORAIR:MIXER,ROOM_1_FLR_6 ZNFCU OA MIXER,Inlet,1
 Non-Parent Node Connection,ROOM_1_FLR_6 ZNFCU RELIEF AIR NODE,OUTDOORAIR:MIXER,ROOM_1_FLR_6 ZNFCU OA MIXER,ReliefAir,1
 Non-Parent Node Connection,NODE 195,OUTDOORAIR:MIXER,ROOM_1_FLR_6 ZNFCU OA MIXER,Inlet,1
 Non-Parent Node Connection,ROOM_2_FLR_3 ZNFCU MIXED AIR NODE,OUTDOORAIR:MIXER,ROOM_2_FLR_3 ZNFCU OA MIXER,Outlet,1
 Non-Parent Node Connection,ROOM_2_FLR_3 ZNFCU OA NODE,OUTDOORAIR:MIXER,ROOM_2_FLR_3 ZNFCU OA MIXER,Inlet,1
 Non-Parent Node Connection,ROOM_2_FLR_3 ZNFCU RELIEF AIR NODE,OUTDOORAIR:MIXER,ROOM_2_FLR_3 ZNFCU OA MIXER,ReliefAir,1
 Non-Parent Node Connection,NODE 155,OUTDOORAIR:MIXER,ROOM_2_FLR_3 ZNFCU OA MIXER,Inlet,1
 Non-Parent Node Connection,ROOM_2_FLR_6 ZNFCU MIXED AIR NODE,OUTDOORAIR:MIXER,ROOM_2_FLR_6 ZNFCU OA MIXER,Outlet,1
 Non-Parent Node Connection,ROOM_2_FLR_6 ZNFCU OA NODE,OUTDOORAIR:MIXER,ROOM_2_FLR_6 ZNFCU OA MIXER,Inlet,1
 Non-Parent Node Connection,ROOM_2_FLR_6 ZNFCU RELIEF AIR NODE,OUTDOORAIR:MIXER,ROOM_2_FLR_6 ZNFCU OA MIXER,ReliefAir,1
 Non-Parent Node Connection,NODE 203,OUTDOORAIR:MIXER,ROOM_2_FLR_6 ZNFCU OA MIXER,Inlet,1
 Non-Parent Node Connection,ROOM_3_MULT19_FLR_3 ZNFCU MIXED AIR NODE,OUTDOORAIR:MIXER,ROOM_3_MULT19_FLR_3 ZNFCU OA MIXER,Outlet,1
 Non-Parent Node Connection,ROOM_3_MULT19_FLR_3 ZNFCU OA NODE,OUTDOORAIR:MIXER,ROOM_3_MULT19_FLR_3 ZNFCU OA MIXER,Inlet,1
 Non-Parent Node Connection,ROOM_3_MULT19_FLR_3 ZNFCU RELIEF AIR NODE,OUTDOORAIR:MIXER,ROOM_3_MULT19_FLR_3 ZNFCU OA MIXER,ReliefAir,1
 Non-Parent Node Connection,NODE 163,OUTDOORAIR:MIXER,ROOM_3_MULT19_FLR_3 ZNFCU OA MIXER,Inlet,1
 Non-Parent Node Connection,ROOM_3_MULT9_FLR_6 ZNFCU MIXED AIR NODE,OUTDOORAIR:MIXER,ROOM_3_MULT9_FLR_6 ZNFCU OA MIXER,Outlet,1
 Non-Parent Node Connection,ROOM_3_MULT9_FLR_6 ZNFCU OA NODE,OUTDOORAIR:MIXER,ROOM_3_MULT9_FLR_6 ZNFCU OA MIXER,Inlet,1
 Non-Parent Node Connection,ROOM_3_MULT9_FLR_6 ZNFCU RELIEF AIR NODE,OUTDOORAIR:MIXER,ROOM_3_MULT9_FLR_6 ZNFCU OA MIXER,ReliefAir,1
 Non-Parent Node Connection,NODE 211,OUTDOORAIR:MIXER,ROOM_3_MULT9_FLR_6 ZNFCU OA MIXER,Inlet,1
 Non-Parent Node Connection,ROOM_4_MULT19_FLR_3 ZNFCU MIXED AIR NODE,OUTDOORAIR:MIXER,ROOM_4_MULT19_FLR_3 ZNFCU OA MIXER,Outlet,1
 Non-Parent Node Connection,ROOM_4_MULT19_FLR_3 ZNFCU OA NODE,OUTDOORAIR:MIXER,ROOM_4_MULT19_FLR_3 ZNFCU OA MIXER,Inlet,1
 Non-Parent Node Connection,ROOM_4_MULT19_FLR_3 ZNFCU RELIEF AIR NODE,OUTDOORAIR:MIXER,ROOM_4_MULT19_FLR_3 ZNFCU OA MIXER,ReliefAir,1
 Non-Parent Node Connection,NODE 171,OUTDOORAIR:MIXER,ROOM_4_MULT19_FLR_3 ZNFCU OA MIXER,Inlet,1
 Non-Parent Node Connection,ROOM_5_FLR_3 ZNFCU MIXED AIR NODE,OUTDOORAIR:MIXER,ROOM_5_FLR_3 ZNFCU OA MIXER,Outlet,1
 Non-Parent Node Connection,ROOM_5_FLR_3 ZNFCU OA NODE,OUTDOORAIR:MIXER,ROOM_5_FLR_3 ZNFCU OA MIXER,Inlet,1
 Non-Parent Node Connection,ROOM_5_FLR_3 ZNFCU RELIEF AIR NODE,OUTDOORAIR:MIXER,ROOM_5_FLR_3 ZNFCU OA MIXER,ReliefAir,1
 Non-Parent Node Connection,NODE 179,OUTDOORAIR:MIXER,ROOM_5_FLR_3 ZNFCU OA MIXER,Inlet,1
 Non-Parent Node Connection,ROOM_6_FLR_3 ZNFCU MIXED AIR NODE,OUTDOORAIR:MIXER,ROOM_6_FLR_3 ZNFCU OA MIXER,Outlet,1
 Non-Parent Node Connection,ROOM_6_FLR_3 ZNFCU OA NODE,OUTDOORAIR:MIXER,ROOM_6_FLR_3 ZNFCU OA MIXER,Inlet,1
 Non-Parent Node Connection,ROOM_6_FLR_3 ZNFCU RELIEF AIR NODE,OUTDOORAIR:MIXER,ROOM_6_FLR_3 ZNFCU OA MIXER,ReliefAir,1
 Non-Parent Node Connection,NODE 187,OUTDOORAIR:MIXER,ROOM_6_FLR_3 ZNFCU OA MIXER,Inlet,1
 Non-Parent Node Connection,NODE 143,OUTDOORAIR:MIXER,AIR LOOP HVAC OUTDOOR AIR SYSTEM 1 OUTDOOR AIR MIXER,Outlet,1
 Non-Parent Node Connection,NODE 141,OUTDOORAIR:MIXER,AIR LOOP HVAC OUTDOOR AIR SYSTEM 1 OUTDOOR AIR MIXER,Inlet,1
 Non-Parent Node Connection,NODE 142,OUTDOORAIR:MIXER,AIR LOOP HVAC OUTDOOR AIR SYSTEM 1 OUTDOOR AIR MIXER,ReliefAir,1
 Non-Parent Node Connection,NODE 130,OUTDOORAIR:MIXER,AIR LOOP HVAC OUTDOOR AIR SYSTEM 1 OUTDOOR AIR MIXER,Inlet,1
 Non-Parent Node Connection,NODE 65,OUTDOORAIR:MIXER,VAV WITH REHEAT OA SYS OUTDOOR AIR MIXER,Outlet,1
 Non-Parent Node Connection,NODE 63,OUTDOORAIR:MIXER,VAV WITH REHEAT OA SYS OUTDOOR AIR MIXER,Inlet,1
 Non-Parent Node Connection,NODE 64,OUTDOORAIR:MIXER,VAV WITH REHEAT OA SYS OUTDOOR AIR MIXER,ReliefAir,1
 Non-Parent Node Connection,NODE 52,OUTDOORAIR:MIXER,VAV WITH REHEAT OA SYS OUTDOOR AIR MIXER,Inlet,1
 Non-Parent Node Connection,NODE 137,FAN:CONSTANTVOLUME,DOAS FAN,Inlet,1
 Non-Parent Node Connection,NODE 131,FAN:CONSTANTVOLUME,DOAS FAN,Outlet,1
 Non-Parent Node Connection,NODE 57,FAN:VARIABLEVOLUME,VAV WITH REHEAT FAN,Inlet,1
 Non-Parent Node Connection,NODE 53,FAN:VARIABLEVOLUME,VAV WITH REHEAT FAN,Outlet,1
 Non-Parent Node Connection,ROOM_1_FLR_3 ZNFCU MIXED AIR NODE,FAN:ONOFF,ROOM_1_FLR_3 ZN FAN COIL FAN,Inlet,1
 Non-Parent Node Connection,ROOM_1_FLR_3 ZNFCU FAN OUTLET NODE,FAN:ONOFF,ROOM_1_FLR_3 ZN FAN COIL FAN,Outlet,1
 Non-Parent Node Connection,ROOM_1_FLR_6 ZNFCU MIXED AIR NODE,FAN:ONOFF,ROOM_1_FLR_6 ZN FAN COIL FAN,Inlet,1
 Non-Parent Node Connection,ROOM_1_FLR_6 ZNFCU FAN OUTLET NODE,FAN:ONOFF,ROOM_1_FLR_6 ZN FAN COIL FAN,Outlet,1
 Non-Parent Node Connection,ROOM_2_FLR_3 ZNFCU MIXED AIR NODE,FAN:ONOFF,ROOM_2_FLR_3 ZN FAN COIL FAN,Inlet,1
 Non-Parent Node Connection,ROOM_2_FLR_3 ZNFCU FAN OUTLET NODE,FAN:ONOFF,ROOM_2_FLR_3 ZN FAN COIL FAN,Outlet,1
 Non-Parent Node Connection,ROOM_2_FLR_6 ZNFCU MIXED AIR NODE,FAN:ONOFF,ROOM_2_FLR_6 ZN FAN COIL FAN,Inlet,1
 Non-Parent Node Connection,ROOM_2_FLR_6 ZNFCU FAN OUTLET NODE,FAN:ONOFF,ROOM_2_FLR_6 ZN FAN COIL FAN,Outlet,1
 Non-Parent Node Connection,ROOM_3_MULT19_FLR_3 ZNFCU MIXED AIR NODE,FAN:ONOFF,ROOM_3_MULT19_FLR_3 ZN FAN COIL FAN,Inlet,1
 Non-Parent Node Connection,ROOM_3_MULT19_FLR_3 ZNFCU FAN OUTLET NODE,FAN:ONOFF,ROOM_3_MULT19_FLR_3 ZN FAN COIL FAN,Outlet,1
 Non-Parent Node Connection,ROOM_3_MULT9_FLR_6 ZNFCU MIXED AIR NODE,FAN:ONOFF,ROOM_3_MULT9_FLR_6 ZN FAN COIL FAN,Inlet,1
 Non-Parent Node Connection,ROOM_3_MULT9_FLR_6 ZNFCU FAN OUTLET NODE,FAN:ONOFF,ROOM_3_MULT9_FLR_6 ZN FAN COIL FAN,Outlet,1
 Non-Parent Node Connection,ROOM_4_MULT19_FLR_3 ZNFCU MIXED AIR NODE,FAN:ONOFF,ROOM_4_MULT19_FLR_3 ZN FAN COIL FAN,Inlet,1
 Non-Parent Node Connection,ROOM_4_MULT19_FLR_3 ZNFCU FAN OUTLET NODE,FAN:ONOFF,ROOM_4_MULT19_FLR_3 ZN FAN COIL FAN,Outlet,1
 Non-Parent Node Connection,ROOM_5_FLR_3 ZNFCU MIXED AIR NODE,FAN:ONOFF,ROOM_5_FLR_3 ZN FAN COIL FAN,Inlet,1
 Non-Parent Node Connection,ROOM_5_FLR_3 ZNFCU FAN OUTLET NODE,FAN:ONOFF,ROOM_5_FLR_3 ZN FAN COIL FAN,Outlet,1
 Non-Parent Node Connection,ROOM_6_FLR_3 ZNFCU MIXED AIR NODE,FAN:ONOFF,ROOM_6_FLR_3 ZN FAN COIL FAN,Inlet,1
 Non-Parent Node Connection,ROOM_6_FLR_3 ZNFCU FAN OUTLET NODE,FAN:ONOFF,ROOM_6_FLR_3 ZN FAN COIL FAN,Outlet,1
 Non-Parent Node Connection,NODE 134,AIRTERMINAL:SINGLEDUCT:UNCONTROLLED,ROOM_1_FLR_3 ZNAIR TERMINAL,Outlet,1
 Non-Parent Node Connection,NODE 197,AIRTERMINAL:SINGLEDUCT:UNCONTROLLED,ROOM_1_FLR_6 ZNAIR TERMINAL,Outlet,1
 Non-Parent Node Connection,NODE 157,AIRTERMINAL:SINGLEDUCT:UNCONTROLLED,ROOM_2_FLR_3 ZNAIR TERMINAL,Outlet,1
 Non-Parent Node Connection,NODE 205,AIRTERMINAL:SINGLEDUCT:UNCONTROLLED,ROOM_2_FLR_6 ZNAIR TERMINAL,Outlet,1
 Non-Parent Node Connection,NODE 165,AIRTERMINAL:SINGLEDUCT:UNCONTROLLED,ROOM_3_MULT19_FLR_3 ZNAIR TERMINAL,Outlet,1
 Non-Parent Node Connection,NODE 213,AIRTERMINAL:SINGLEDUCT:UNCONTROLLED,ROOM_3_MULT9_FLR_6 ZNAIR TERMINAL,Outlet,1
 Non-Parent Node Connection,NODE 173,AIRTERMINAL:SINGLEDUCT:UNCONTROLLED,ROOM_4_MULT19_FLR_3 ZNAIR TERMINAL,Outlet,1
 Non-Parent Node Connection,NODE 181,AIRTERMINAL:SINGLEDUCT:UNCONTROLLED,ROOM_5_FLR_3 ZNAIR TERMINAL,Outlet,1
 Non-Parent Node Connection,NODE 189,AIRTERMINAL:SINGLEDUCT:UNCONTROLLED,ROOM_6_FLR_3 ZNAIR TERMINAL,Outlet,1
 Non-Parent Node Connection,NODE 133,AIRLOOPHVAC:ZONEMIXER,AIR LOOP HVAC ZONE MIXER 2,Outlet,1
 Non-Parent Node Connection,NODE 150,AIRLOOPHVAC:ZONEMIXER,AIR LOOP HVAC ZONE MIXER 2,Inlet,1
 Non-Parent Node Connection,NODE 158,AIRLOOPHVAC:ZONEMIXER,AIR LOOP HVAC ZONE MIXER 2,Inlet,1
 Non-Parent Node Connection,NODE 166,AIRLOOPHVAC:ZONEMIXER,AIR LOOP HVAC ZONE MIXER 2,Inlet,1
 Non-Parent Node Connection,NODE 174,AIRLOOPHVAC:ZONEMIXER,AIR LOOP HVAC ZONE MIXER 2,Inlet,1
 Non-Parent Node Connection,NODE 182,AIRLOOPHVAC:ZONEMIXER,AIR LOOP HVAC ZONE MIXER 2,Inlet,1
 Non-Parent Node Connection,NODE 190,AIRLOOPHVAC:ZONEMIXER,AIR LOOP HVAC ZONE MIXER 2,Inlet,1
 Non-Parent Node Connection,NODE 198,AIRLOOPHVAC:ZONEMIXER,AIR LOOP HVAC ZONE MIXER 2,Inlet,1
 Non-Parent Node Connection,NODE 206,AIRLOOPHVAC:ZONEMIXER,AIR LOOP HVAC ZONE MIXER 2,Inlet,1
 Non-Parent Node Connection,NODE 214,AIRLOOPHVAC:ZONEMIXER,AIR LOOP HVAC ZONE MIXER 2,Inlet,1
 Non-Parent Node Connection,NODE 55,AIRLOOPHVAC:ZONEMIXER,AIR LOOP HVAC ZONE MIXER 1,Outlet,1
 Non-Parent Node Connection,NODE 68,AIRLOOPHVAC:ZONEMIXER,AIR LOOP HVAC ZONE MIXER 1,Inlet,1
 Non-Parent Node Connection,NODE 73,AIRLOOPHVAC:ZONEMIXER,AIR LOOP HVAC ZONE MIXER 1,Inlet,1
 Non-Parent Node Connection,NODE 78,AIRLOOPHVAC:ZONEMIXER,AIR LOOP HVAC ZONE MIXER 1,Inlet,1
 Non-Parent Node Connection,NODE 83,AIRLOOPHVAC:ZONEMIXER,AIR LOOP HVAC ZONE MIXER 1,Inlet,1
 Non-Parent Node Connection,NODE 88,AIRLOOPHVAC:ZONEMIXER,AIR LOOP HVAC ZONE MIXER 1,Inlet,1
 Non-Parent Node Connection,NODE 93,AIRLOOPHVAC:ZONEMIXER,AIR LOOP HVAC ZONE MIXER 1,Inlet,1
 Non-Parent Node Connection,NODE 98,AIRLOOPHVAC:ZONEMIXER,AIR LOOP HVAC ZONE MIXER 1,Inlet,1
 Non-Parent Node Connection,NODE 103,AIRLOOPHVAC:ZONEMIXER,AIR LOOP HVAC ZONE MIXER 1,Inlet,1
 Non-Parent Node Connection,NODE 108,AIRLOOPHVAC:ZONEMIXER,AIR LOOP HVAC ZONE MIXER 1,Inlet,1
 Non-Parent Node Connection,NODE 113,AIRLOOPHVAC:ZONEMIXER,AIR LOOP HVAC ZONE MIXER 1,Inlet,1
 Non-Parent Node Connection,NODE 118,AIRLOOPHVAC:ZONEMIXER,AIR LOOP HVAC ZONE MIXER 1,Inlet,1
 Non-Parent Node Connection,NODE 123,AIRLOOPHVAC:ZONEMIXER,AIR LOOP HVAC ZONE MIXER 1,Inlet,1
 Non-Parent Node Connection,NODE 128,AIRLOOPHVAC:ZONEMIXER,AIR LOOP HVAC ZONE MIXER 1,Inlet,1
 Non-Parent Node Connection,NODE 140,CONTROLLER:WATERCOIL,CONTROLLER WATER COIL 15,Sensor,1
 Non-Parent Node Connection,NODE 138,CONTROLLER:WATERCOIL,CONTROLLER WATER COIL 15,Actuator,1
 Non-Parent Node Connection,NODE 137,CONTROLLER:WATERCOIL,CONTROLLER WATER COIL 14,Sensor,1
 Non-Parent Node Connection,NODE 135,CONTROLLER:WATERCOIL,CONTROLLER WATER COIL 14,Actuator,1
 Non-Parent Node Connection,NODE 60,CONTROLLER:WATERCOIL,VAV WITH REHEAT CLG COIL CONTROLLER,Sensor,1
 Non-Parent Node Connection,NODE 61,CONTROLLER:WATERCOIL,VAV WITH REHEAT CLG COIL CONTROLLER,Actuator,1
 Non-Parent Node Connection,NODE 57,CONTROLLER:WATERCOIL,VAV WITH REHEAT MAIN HTG COIL CONTROLLER,Sensor,1
 Non-Parent Node Connection,NODE 58,CONTROLLER:WATERCOIL,VAV WITH REHEAT MAIN HTG COIL CONTROLLER,Actuator,1
 Non-Parent Node Connection,NODE 143,CONTROLLER:OUTDOORAIR,DOAS OA CONTROLLER,Sensor,1
 Non-Parent Node Connection,NODE 141,CONTROLLER:OUTDOORAIR,DOAS OA CONTROLLER,Actuator,1
 Non-Parent Node Connection,NODE 142,CONTROLLER:OUTDOORAIR,DOAS OA CONTROLLER,Actuator,1
 Non-Parent Node Connection,NODE 130,CONTROLLER:OUTDOORAIR,DOAS OA CONTROLLER,Sensor,1
 Non-Parent Node Connection,NODE 65,CONTROLLER:OUTDOORAIR,VAV WITH REHEAT OA CONTROLLER,Sensor,1
 Non-Parent Node Connection,NODE 63,CONTROLLER:OUTDOORAIR,VAV WITH REHEAT OA CONTROLLER,Actuator,1
 Non-Parent Node Connection,NODE 64,CONTROLLER:OUTDOORAIR,VAV WITH REHEAT OA CONTROLLER,Actuator,1
 Non-Parent Node Connection,NODE 52,CONTROLLER:OUTDOORAIR,VAV WITH REHEAT OA CONTROLLER,Sensor,1
 Non-Parent Node Connection,NODE 32,PIPE:ADIABATIC,PIPE ADIABATIC 1,Inlet,1
 Non-Parent Node Connection,NODE 33,PIPE:ADIABATIC,PIPE ADIABATIC 1,Outlet,1
 Non-Parent Node Connection,NODE 35,PIPE:ADIABATIC,PIPE ADIABATIC 3,Inlet,1
 Non-Parent Node Connection,NODE 24,PIPE:ADIABATIC,PIPE ADIABATIC 3,Outlet,1
 Non-Parent Node Connection,NODE 26,PIPE:ADIABATIC,PIPE ADIABATIC 4,Inlet,1
 Non-Parent Node Connection,NODE 36,PIPE:ADIABATIC,PIPE ADIABATIC 4,Outlet,1
 Non-Parent Node Connection,NODE 28,PIPE:ADIABATIC,PIPE ADIABATIC 2,Inlet,1
 Non-Parent Node Connection,NODE 34,PIPE:ADIABATIC,PIPE ADIABATIC 2,Outlet,1
 Non-Parent Node Connection,CHILLED WATER LOOP DEMAND BYPASS PIPE INLET NODE,PIPE:ADIABATIC,CHILLED WATER LOOP DEMAND BYPASS PIPE,Inlet,1
 Non-Parent Node Connection,CHILLED WATER LOOP DEMAND BYPASS PIPE OUTLET NODE,PIPE:ADIABATIC,CHILLED WATER LOOP DEMAND BYPASS PIPE,Outlet,1
 Non-Parent Node Connection,NODE 37,PIPE:ADIABATIC,PIPE ADIABATIC 5,Inlet,1
 Non-Parent Node Connection,NODE 27,PIPE:ADIABATIC,PIPE ADIABATIC 5,Outlet,1
 Non-Parent Node Connection,NODE 46,PIPE:ADIABATIC,PIPE ADIABATIC 6,Inlet,1
 Non-Parent Node Connection,NODE 47,PIPE:ADIABATIC,PIPE ADIABATIC 6,Outlet,1
 Non-Parent Node Connection,NODE 49,PIPE:ADIABATIC,PIPE ADIABATIC 8,Inlet,1
 Non-Parent Node Connection,NODE 39,PIPE:ADIABATIC,PIPE ADIABATIC 8,Outlet,1
 Non-Parent Node Connection,NODE 41,PIPE:ADIABATIC,PIPE ADIABATIC 9,Inlet,1
 Non-Parent Node Connection,NODE 50,PIPE:ADIABATIC,PIPE ADIABATIC 9,Outlet,1
 Non-Parent Node Connection,NODE 43,PIPE:ADIABATIC,PIPE ADIABATIC 7,Inlet,1
 Non-Parent Node Connection,NODE 48,PIPE:ADIABATIC,PIPE ADIABATIC 7,Outlet,1
 Non-Parent Node Connection,HOT WATER LOOP DEMAND BYPASS PIPE INLET NODE,PIPE:ADIABATIC,HOT WATER LOOP DEMAND BYPASS PIPE,Inlet,1
 Non-Parent Node Connection,HOT WATER LOOP DEMAND BYPASS PIPE OUTLET NODE,PIPE:ADIABATIC,HOT WATER LOOP DEMAND BYPASS PIPE,Outlet,1
 Non-Parent Node Connection,NODE 51,PIPE:ADIABATIC,PIPE ADIABATIC 10,Inlet,1
 Non-Parent Node Connection,NODE 42,PIPE:ADIABATIC,PIPE ADIABATIC 10,Outlet,1
 Non-Parent Node Connection,NODE 257,PIPE:ADIABATIC,PIPE ADIABATIC 16,Inlet,1
 Non-Parent Node Connection,NODE 258,PIPE:ADIABATIC,PIPE ADIABATIC 16,Outlet,1
 Non-Parent Node Connection,NODE 260,PIPE:ADIABATIC,PIPE ADIABATIC 18,Inlet,1
 Non-Parent Node Connection,NODE 250,PIPE:ADIABATIC,PIPE ADIABATIC 18,Outlet,1
 Non-Parent Node Connection,NODE 252,PIPE:ADIABATIC,PIPE ADIABATIC 19,Inlet,1
 Non-Parent Node Connection,NODE 261,PIPE:ADIABATIC,PIPE ADIABATIC 19,Outlet,1
 Non-Parent Node Connection,NODE 254,PIPE:ADIABATIC,PIPE ADIABATIC 17,Inlet,1
 Non-Parent Node Connection,NODE 259,PIPE:ADIABATIC,PIPE ADIABATIC 17,Outlet,1
 Non-Parent Node Connection,LAUNDRY SERVICE WATER LOOP DEMAND BYPASS PIPE INLET NODE,PIPE:ADIABATIC,LAUNDRY SERVICE WATER LOOP DEMAND BYPASS PIPE,Inlet,1
 Non-Parent Node Connection,LAUNDRY SERVICE WATER LOOP DEMAND BYPASS PIPE OUTLET NODE,PIPE:ADIABATIC,LAUNDRY SERVICE WATER LOOP DEMAND BYPASS PIPE,Outlet,1
 Non-Parent Node Connection,NODE 262,PIPE:ADIABATIC,PIPE ADIABATIC 20,Inlet,1
 Non-Parent Node Connection,NODE 253,PIPE:ADIABATIC,PIPE ADIABATIC 20,Outlet,1
 Non-Parent Node Connection,NODE 223,PIPE:ADIABATIC,PIPE ADIABATIC 11,Inlet,1
 Non-Parent Node Connection,NODE 224,PIPE:ADIABATIC,PIPE ADIABATIC 11,Outlet,1
 Non-Parent Node Connection,NODE 226,PIPE:ADIABATIC,PIPE ADIABATIC 13,Inlet,1
 Non-Parent Node Connection,NODE 216,PIPE:ADIABATIC,PIPE ADIABATIC 13,Outlet,1
 Non-Parent Node Connection,NODE 218,PIPE:ADIABATIC,PIPE ADIABATIC 14,Inlet,1
 Non-Parent Node Connection,NODE 227,PIPE:ADIABATIC,PIPE ADIABATIC 14,Outlet,1
 Non-Parent Node Connection,NODE 220,PIPE:ADIABATIC,PIPE ADIABATIC 12,Inlet,1
 Non-Parent Node Connection,NODE 225,PIPE:ADIABATIC,PIPE ADIABATIC 12,Outlet,1
 Non-Parent Node Connection,MAIN SERVICE WATER LOOP DEMAND BYPASS PIPE INLET NODE,PIPE:ADIABATIC,MAIN SERVICE WATER LOOP DEMAND BYPASS PIPE,Inlet,1
 Non-Parent Node Connection,MAIN SERVICE WATER LOOP DEMAND BYPASS PIPE OUTLET NODE,PIPE:ADIABATIC,MAIN SERVICE WATER LOOP DEMAND BYPASS PIPE,Outlet,1
 Non-Parent Node Connection,NODE 228,PIPE:ADIABATIC,PIPE ADIABATIC 15,Inlet,1
 Non-Parent Node Connection,NODE 219,PIPE:ADIABATIC,PIPE ADIABATIC 15,Outlet,1
 Non-Parent Node Connection,NODE 273,PIPE:ADIABATIC,PIPE ADIABATIC 21,Inlet,1
 Non-Parent Node Connection,NODE 274,PIPE:ADIABATIC,PIPE ADIABATIC 21,Outlet,1
 Non-Parent Node Connection,NODE 276,PIPE:ADIABATIC,PIPE ADIABATIC 23,Inlet,1
 Non-Parent Node Connection,NODE 266,PIPE:ADIABATIC,PIPE ADIABATIC 23,Outlet,1
 Non-Parent Node Connection,NODE 268,PIPE:ADIABATIC,PIPE ADIABATIC 24,Inlet,1
 Non-Parent Node Connection,NODE 277,PIPE:ADIABATIC,PIPE ADIABATIC 24,Outlet,1
 Non-Parent Node Connection,NODE 270,PIPE:ADIABATIC,PIPE ADIABATIC 22,Inlet,1
 Non-Parent Node Connection,NODE 275,PIPE:ADIABATIC,PIPE ADIABATIC 22,Outlet,1
 Non-Parent Node Connection,SERVICE WATER LOOP DEMAND BYPASS PIPE INLET NODE,PIPE:ADIABATIC,SERVICE WATER LOOP DEMAND BYPASS PIPE,Inlet,1
 Non-Parent Node Connection,SERVICE WATER LOOP DEMAND BYPASS PIPE OUTLET NODE,PIPE:ADIABATIC,SERVICE WATER LOOP DEMAND BYPASS PIPE,Outlet,1
 Non-Parent Node Connection,NODE 278,PIPE:ADIABATIC,PIPE ADIABATIC 25,Inlet,1
 Non-Parent Node Connection,NODE 269,PIPE:ADIABATIC,PIPE ADIABATIC 25,Outlet,1
 Non-Parent Node Connection,NODE 280,HEATEXCHANGER:FLUIDTOFLUID,HX FOR BOOSTER WATER HEATING,Inlet,1
 Non-Parent Node Connection,NODE 281,HEATEXCHANGER:FLUIDTOFLUID,HX FOR BOOSTER WATER HEATING,Outlet,1
 Non-Parent Node Connection,NODE 265,HEATEXCHANGER:FLUIDTOFLUID,HX FOR BOOSTER WATER HEATING,Inlet,2
 Non-Parent Node Connection,NODE 279,HEATEXCHANGER:FLUIDTOFLUID,HX FOR BOOSTER WATER HEATING,Outlet,2
 Non-Parent Node Connection,NODE 279,HEATEXCHANGER:FLUIDTOFLUID,HX FOR BOOSTER WATER HEATING,Sensor,1
 Non-Parent Node Connection,NODE 25,CHILLER:ELECTRIC:EIR,90.1-2010 AIRCOOLED WITHCONDENSER  CHILLER 373TONS 1.3KW/TON,Inlet,1
 Non-Parent Node Connection,NODE 31,CHILLER:ELECTRIC:EIR,90.1-2010 AIRCOOLED WITHCONDENSER  CHILLER 373TONS 1.3KW/TON,Outlet,1
 Non-Parent Node Connection,90.1-2010 AIRCOOLED WITHCONDENSER  CHILLER 373TONS 1.3KW/TON INLET NODE FOR CONDENSER,CHILLER:ELECTRIC:EIR,90.1-2010 AIRCOOLED WITHCONDENSER  CHILLER 373TONS 1.3KW/TON,OutsideAirReference,2
 Non-Parent Node Connection,90.1-2010 AIRCOOLED WITHCONDENSER  CHILLER 373TONS 1.3KW/TON INLET NODE FOR CONDENSER,OUTDOORAIR:NODE,OutdoorAir:Node,OutdoorAir,12
 Non-Parent Node Connection,90.1-2010 AIRCOOLED WITHCONDENSER  CHILLER 373TONS 1.3KW/TON OUTLET NODE FOR CONDENSER,CHILLER:ELECTRIC:EIR,90.1-2010 AIRCOOLED WITHCONDENSER  CHILLER 373TONS 1.3KW/TON,Outlet,2
 Non-Parent Node Connection,NODE 40,BOILER:HOTWATER,HOT WATER LOOP BOILER 2257KBTU/HR 0.8 THERMAL EFF,Inlet,1
 Non-Parent Node Connection,NODE 45,BOILER:HOTWATER,HOT WATER LOOP BOILER 2257KBTU/HR 0.8 THERMAL EFF,Outlet,1
 Non-Parent Node Connection,NODE 36,PUMP:VARIABLESPEED,CHILLED WATER LOOP SECONDARY PUMP,Inlet,1
 Non-Parent Node Connection,NODE 30,PUMP:VARIABLESPEED,CHILLED WATER LOOP SECONDARY PUMP,Outlet,1
 Non-Parent Node Connection,NODE 38,PUMP:VARIABLESPEED,HOT WATER LOOP PUMP,Inlet,1
 Non-Parent Node Connection,NODE 44,PUMP:VARIABLESPEED,HOT WATER LOOP PUMP,Outlet,1
 Non-Parent Node Connection,NODE 23,PUMP:CONSTANTSPEED,CHILLED WATER LOOP PRIMARY PUMP,Inlet,1
 Non-Parent Node Connection,NODE 29,PUMP:CONSTANTSPEED,CHILLED WATER LOOP PRIMARY PUMP,Outlet,1
 Non-Parent Node Connection,NODE 249,PUMP:CONSTANTSPEED,SERVICE WATER LOOP PUMP 1,Inlet,1
 Non-Parent Node Connection,NODE 255,PUMP:CONSTANTSPEED,SERVICE WATER LOOP PUMP 1,Outlet,1
 Non-Parent Node Connection,NODE 215,PUMP:CONSTANTSPEED,SERVICE WATER LOOP PUMP,Inlet,1
 Non-Parent Node Connection,NODE 221,PUMP:CONSTANTSPEED,SERVICE WATER LOOP PUMP,Outlet,1
 Non-Parent Node Connection,NODE 279,PUMP:CONSTANTSPEED,BOOSTER WATER LOOP PUMP,Inlet,1
 Non-Parent Node Connection,NODE 271,PUMP:CONSTANTSPEED,BOOSTER WATER LOOP PUMP,Outlet,1
